
---------- Begin Simulation Statistics ----------
final_tick                               118990487000                       # Number of ticks from beginning of simulation (restored from checkpoints and never reset)
host_inst_rate                                 242611                       # Simulator instruction rate (inst/s)
host_mem_usage                                 702192                       # Number of bytes of host memory used
host_op_rate                                   245286                       # Simulator op (including micro ops) rate (op/s)
host_seconds                                   412.18                       # Real time elapsed on the host
host_tick_rate                              288683843                       # Simulator tick rate (ticks/s)
sim_freq                                 1000000000000                       # Frequency of simulated ticks
sim_insts                                   100000000                       # Number of instructions simulated
sim_ops                                     101102736                       # Number of ops (including micro ops) simulated
sim_seconds                                  0.118990                       # Number of seconds simulated
sim_ticks                                118990487000                       # Number of ticks simulated
system.cpu.branchPred.BTBCorrect                    0                       # Number of correct BTB predictions (this stat may not work properly.
system.cpu.branchPred.BTBHitPct             84.201764                       # BTB Hit Percentage
system.cpu.branchPred.BTBHits                 4081374                       # Number of BTB hits
system.cpu.branchPred.BTBLookups              4847136                       # Number of BTB lookups
system.cpu.branchPred.RASInCorrect                 20                       # Number of incorrect RAS predictions.
system.cpu.branchPred.condIncorrect            352118                       # Number of conditional branches incorrect
system.cpu.branchPred.condPredicted           5092545                       # Number of conditional branches predicted
system.cpu.branchPred.indirectHits             102865                       # Number of indirect target hits.
system.cpu.branchPred.indirectLookups          676222                       # Number of indirect predictor lookups.
system.cpu.branchPred.indirectMisses           573357                       # Number of indirect misses.
system.cpu.branchPred.lookups                 6498850                       # Number of BP lookups
system.cpu.branchPred.usedRAS                  311923                       # Number of times the RAS was used to get a target.
system.cpu.branchPredindirectMispredicted        37627                       # Number of mispredicted indirect branches.
system.cpu.committedInsts                   100000000                       # Number of instructions committed
system.cpu.committedOps                     101102736                       # Number of ops (including micro ops) committed
system.cpu.cpi                               1.189905                       # CPI: cycles per instruction
system.cpu.discardedOps                        971650                       # Number of ops (including micro ops) which were discarded before commit
system.cpu.dtb.accesses                             0                       # DTB accesses
system.cpu.dtb.align_faults                         0                       # Number of TLB faults due to alignment restrictions
system.cpu.dtb.domain_faults                        0                       # Number of TLB faults due to domain restrictions
system.cpu.dtb.flush_entries                        0                       # Number of entries that have been flushed from TLB
system.cpu.dtb.flush_tlb                            0                       # Number of times complete TLB was flushed
system.cpu.dtb.flush_tlb_asid                       0                       # Number of times TLB was flushed by ASID
system.cpu.dtb.flush_tlb_mva                        0                       # Number of times TLB was flushed by MVA
system.cpu.dtb.flush_tlb_mva_asid                   0                       # Number of times TLB was flushed by MVA & ASID
system.cpu.dtb.hits                                 0                       # DTB hits
system.cpu.dtb.inst_accesses                        0                       # ITB inst accesses
system.cpu.dtb.inst_hits                            0                       # ITB inst hits
system.cpu.dtb.inst_misses                          0                       # ITB inst misses
system.cpu.dtb.misses                               0                       # DTB misses
system.cpu.dtb.perms_faults                         0                       # Number of TLB faults due to permissions restrictions
system.cpu.dtb.prefetch_faults                      0                       # Number of TLB faults due to prefetch
system.cpu.dtb.read_accesses                        0                       # DTB read accesses
system.cpu.dtb.read_hits                            0                       # DTB read hits
system.cpu.dtb.read_misses                          0                       # DTB read misses
system.cpu.dtb.stage2_mmu.stage2_tlb.accesses            0                       # DTB accesses
system.cpu.dtb.stage2_mmu.stage2_tlb.align_faults            0                       # Number of TLB faults due to alignment restrictions
system.cpu.dtb.stage2_mmu.stage2_tlb.domain_faults            0                       # Number of TLB faults due to domain restrictions
system.cpu.dtb.stage2_mmu.stage2_tlb.flush_entries            0                       # Number of entries that have been flushed from TLB
system.cpu.dtb.stage2_mmu.stage2_tlb.flush_tlb            0                       # Number of times complete TLB was flushed
system.cpu.dtb.stage2_mmu.stage2_tlb.flush_tlb_asid            0                       # Number of times TLB was flushed by ASID
system.cpu.dtb.stage2_mmu.stage2_tlb.flush_tlb_mva            0                       # Number of times TLB was flushed by MVA
system.cpu.dtb.stage2_mmu.stage2_tlb.flush_tlb_mva_asid            0                       # Number of times TLB was flushed by MVA & ASID
system.cpu.dtb.stage2_mmu.stage2_tlb.hits            0                       # DTB hits
system.cpu.dtb.stage2_mmu.stage2_tlb.inst_accesses            0                       # ITB inst accesses
system.cpu.dtb.stage2_mmu.stage2_tlb.inst_hits            0                       # ITB inst hits
system.cpu.dtb.stage2_mmu.stage2_tlb.inst_misses            0                       # ITB inst misses
system.cpu.dtb.stage2_mmu.stage2_tlb.misses            0                       # DTB misses
system.cpu.dtb.stage2_mmu.stage2_tlb.perms_faults            0                       # Number of TLB faults due to permissions restrictions
system.cpu.dtb.stage2_mmu.stage2_tlb.prefetch_faults            0                       # Number of TLB faults due to prefetch
system.cpu.dtb.stage2_mmu.stage2_tlb.read_accesses            0                       # DTB read accesses
system.cpu.dtb.stage2_mmu.stage2_tlb.read_hits            0                       # DTB read hits
system.cpu.dtb.stage2_mmu.stage2_tlb.read_misses            0                       # DTB read misses
system.cpu.dtb.stage2_mmu.stage2_tlb.walker.walkRequestOrigin_Requested::Data            0                       # Table walker requests started/completed, data/inst
system.cpu.dtb.stage2_mmu.stage2_tlb.walker.walkRequestOrigin_Requested::Inst            0                       # Table walker requests started/completed, data/inst
system.cpu.dtb.stage2_mmu.stage2_tlb.walker.walkRequestOrigin_Requested::total            0                       # Table walker requests started/completed, data/inst
system.cpu.dtb.stage2_mmu.stage2_tlb.walker.walkRequestOrigin_Completed::Data            0                       # Table walker requests started/completed, data/inst
system.cpu.dtb.stage2_mmu.stage2_tlb.walker.walkRequestOrigin_Completed::Inst            0                       # Table walker requests started/completed, data/inst
system.cpu.dtb.stage2_mmu.stage2_tlb.walker.walkRequestOrigin_Completed::total            0                       # Table walker requests started/completed, data/inst
system.cpu.dtb.stage2_mmu.stage2_tlb.walker.walkRequestOrigin::total            0                       # Table walker requests started/completed, data/inst
system.cpu.dtb.stage2_mmu.stage2_tlb.walker.walks            0                       # Table walker walks requested
system.cpu.dtb.stage2_mmu.stage2_tlb.write_accesses            0                       # DTB write accesses
system.cpu.dtb.stage2_mmu.stage2_tlb.write_hits            0                       # DTB write hits
system.cpu.dtb.stage2_mmu.stage2_tlb.write_misses            0                       # DTB write misses
system.cpu.dtb.walker.walkRequestOrigin_Requested::Data            0                       # Table walker requests started/completed, data/inst
system.cpu.dtb.walker.walkRequestOrigin_Requested::Inst            0                       # Table walker requests started/completed, data/inst
system.cpu.dtb.walker.walkRequestOrigin_Requested::total            0                       # Table walker requests started/completed, data/inst
system.cpu.dtb.walker.walkRequestOrigin_Completed::Data            0                       # Table walker requests started/completed, data/inst
system.cpu.dtb.walker.walkRequestOrigin_Completed::Inst            0                       # Table walker requests started/completed, data/inst
system.cpu.dtb.walker.walkRequestOrigin_Completed::total            0                       # Table walker requests started/completed, data/inst
system.cpu.dtb.walker.walkRequestOrigin::total            0                       # Table walker requests started/completed, data/inst
system.cpu.dtb.walker.walks                         0                       # Table walker walks requested
system.cpu.dtb.write_accesses                       0                       # DTB write accesses
system.cpu.dtb.write_hits                           0                       # DTB write hits
system.cpu.dtb.write_misses                         0                       # DTB write misses
system.cpu.fetch2.amo_instructions                  0                       # Number of memory atomic instructions successfully decoded
system.cpu.fetch2.fp_instructions                   0                       # Number of floating point instructions successfully decoded
system.cpu.fetch2.int_instructions           48879072                       # Number of integer instructions successfully decoded
system.cpu.fetch2.load_instructions          40576595                       # Number of memory load instructions successfully decoded
system.cpu.fetch2.store_instructions          6265779                       # Number of memory store instructions successfully decoded
system.cpu.fetch2.vec_instructions                  0                       # Number of SIMD instructions successfully decoded
system.cpu.idleCycles                         2999828                       # Total number of cycles that the object has spent stopped
system.cpu.ipc                               0.840403                       # IPC: instructions per cycle
system.cpu.itb.accesses                             0                       # DTB accesses
system.cpu.itb.align_faults                         0                       # Number of TLB faults due to alignment restrictions
system.cpu.itb.domain_faults                        0                       # Number of TLB faults due to domain restrictions
system.cpu.itb.flush_entries                        0                       # Number of entries that have been flushed from TLB
system.cpu.itb.flush_tlb                            0                       # Number of times complete TLB was flushed
system.cpu.itb.flush_tlb_asid                       0                       # Number of times TLB was flushed by ASID
system.cpu.itb.flush_tlb_mva                        0                       # Number of times TLB was flushed by MVA
system.cpu.itb.flush_tlb_mva_asid                   0                       # Number of times TLB was flushed by MVA & ASID
system.cpu.itb.hits                                 0                       # DTB hits
system.cpu.itb.inst_accesses                        0                       # ITB inst accesses
system.cpu.itb.inst_hits                            0                       # ITB inst hits
system.cpu.itb.inst_misses                          0                       # ITB inst misses
system.cpu.itb.misses                               0                       # DTB misses
system.cpu.itb.perms_faults                         0                       # Number of TLB faults due to permissions restrictions
system.cpu.itb.prefetch_faults                      0                       # Number of TLB faults due to prefetch
system.cpu.itb.read_accesses                        0                       # DTB read accesses
system.cpu.itb.read_hits                            0                       # DTB read hits
system.cpu.itb.read_misses                          0                       # DTB read misses
system.cpu.itb.stage2_mmu.stage2_tlb.accesses            0                       # DTB accesses
system.cpu.itb.stage2_mmu.stage2_tlb.align_faults            0                       # Number of TLB faults due to alignment restrictions
system.cpu.itb.stage2_mmu.stage2_tlb.domain_faults            0                       # Number of TLB faults due to domain restrictions
system.cpu.itb.stage2_mmu.stage2_tlb.flush_entries            0                       # Number of entries that have been flushed from TLB
system.cpu.itb.stage2_mmu.stage2_tlb.flush_tlb            0                       # Number of times complete TLB was flushed
system.cpu.itb.stage2_mmu.stage2_tlb.flush_tlb_asid            0                       # Number of times TLB was flushed by ASID
system.cpu.itb.stage2_mmu.stage2_tlb.flush_tlb_mva            0                       # Number of times TLB was flushed by MVA
system.cpu.itb.stage2_mmu.stage2_tlb.flush_tlb_mva_asid            0                       # Number of times TLB was flushed by MVA & ASID
system.cpu.itb.stage2_mmu.stage2_tlb.hits            0                       # DTB hits
system.cpu.itb.stage2_mmu.stage2_tlb.inst_accesses            0                       # ITB inst accesses
system.cpu.itb.stage2_mmu.stage2_tlb.inst_hits            0                       # ITB inst hits
system.cpu.itb.stage2_mmu.stage2_tlb.inst_misses            0                       # ITB inst misses
system.cpu.itb.stage2_mmu.stage2_tlb.misses            0                       # DTB misses
system.cpu.itb.stage2_mmu.stage2_tlb.perms_faults            0                       # Number of TLB faults due to permissions restrictions
system.cpu.itb.stage2_mmu.stage2_tlb.prefetch_faults            0                       # Number of TLB faults due to prefetch
system.cpu.itb.stage2_mmu.stage2_tlb.read_accesses            0                       # DTB read accesses
system.cpu.itb.stage2_mmu.stage2_tlb.read_hits            0                       # DTB read hits
system.cpu.itb.stage2_mmu.stage2_tlb.read_misses            0                       # DTB read misses
system.cpu.itb.stage2_mmu.stage2_tlb.walker.walkRequestOrigin_Requested::Data            0                       # Table walker requests started/completed, data/inst
system.cpu.itb.stage2_mmu.stage2_tlb.walker.walkRequestOrigin_Requested::Inst            0                       # Table walker requests started/completed, data/inst
system.cpu.itb.stage2_mmu.stage2_tlb.walker.walkRequestOrigin_Requested::total            0                       # Table walker requests started/completed, data/inst
system.cpu.itb.stage2_mmu.stage2_tlb.walker.walkRequestOrigin_Completed::Data            0                       # Table walker requests started/completed, data/inst
system.cpu.itb.stage2_mmu.stage2_tlb.walker.walkRequestOrigin_Completed::Inst            0                       # Table walker requests started/completed, data/inst
system.cpu.itb.stage2_mmu.stage2_tlb.walker.walkRequestOrigin_Completed::total            0                       # Table walker requests started/completed, data/inst
system.cpu.itb.stage2_mmu.stage2_tlb.walker.walkRequestOrigin::total            0                       # Table walker requests started/completed, data/inst
system.cpu.itb.stage2_mmu.stage2_tlb.walker.walks            0                       # Table walker walks requested
system.cpu.itb.stage2_mmu.stage2_tlb.write_accesses            0                       # DTB write accesses
system.cpu.itb.stage2_mmu.stage2_tlb.write_hits            0                       # DTB write hits
system.cpu.itb.stage2_mmu.stage2_tlb.write_misses            0                       # DTB write misses
system.cpu.itb.walker.walkRequestOrigin_Requested::Data            0                       # Table walker requests started/completed, data/inst
system.cpu.itb.walker.walkRequestOrigin_Requested::Inst            0                       # Table walker requests started/completed, data/inst
system.cpu.itb.walker.walkRequestOrigin_Requested::total            0                       # Table walker requests started/completed, data/inst
system.cpu.itb.walker.walkRequestOrigin_Completed::Data            0                       # Table walker requests started/completed, data/inst
system.cpu.itb.walker.walkRequestOrigin_Completed::Inst            0                       # Table walker requests started/completed, data/inst
system.cpu.itb.walker.walkRequestOrigin_Completed::total            0                       # Table walker requests started/completed, data/inst
system.cpu.itb.walker.walkRequestOrigin::total            0                       # Table walker requests started/completed, data/inst
system.cpu.itb.walker.walks                         0                       # Table walker walks requested
system.cpu.itb.write_accesses                       0                       # DTB write accesses
system.cpu.itb.write_hits                           0                       # DTB write hits
system.cpu.itb.write_misses                         0                       # DTB write misses
system.cpu.numCycles                        118990487                       # number of cpu cycles simulated
system.cpu.numFetchSuspends                         0                       # Number of times Execute suspended instruction fetching
system.cpu.numWorkItemsCompleted                    0                       # number of work items this cpu completed
system.cpu.numWorkItemsStarted                      0                       # number of work items this cpu started
system.cpu.op_class_0::No_OpClass                   0      0.00%      0.00% # Class of committed instruction
system.cpu.op_class_0::IntAlu                55115696     54.51%     54.51% # Class of committed instruction
system.cpu.op_class_0::IntMult                 167845      0.17%     54.68% # Class of committed instruction
system.cpu.op_class_0::IntDiv                       0      0.00%     54.68% # Class of committed instruction
system.cpu.op_class_0::FloatAdd                     0      0.00%     54.68% # Class of committed instruction
system.cpu.op_class_0::FloatCmp                     0      0.00%     54.68% # Class of committed instruction
system.cpu.op_class_0::FloatCvt                     0      0.00%     54.68% # Class of committed instruction
system.cpu.op_class_0::FloatMult                    0      0.00%     54.68% # Class of committed instruction
system.cpu.op_class_0::FloatMultAcc                 0      0.00%     54.68% # Class of committed instruction
system.cpu.op_class_0::FloatDiv                     0      0.00%     54.68% # Class of committed instruction
system.cpu.op_class_0::FloatMisc                    0      0.00%     54.68% # Class of committed instruction
system.cpu.op_class_0::FloatSqrt                    0      0.00%     54.68% # Class of committed instruction
system.cpu.op_class_0::SimdAdd                    380      0.00%     54.68% # Class of committed instruction
system.cpu.op_class_0::SimdAddAcc                   0      0.00%     54.68% # Class of committed instruction
system.cpu.op_class_0::SimdAlu                    470      0.00%     54.68% # Class of committed instruction
system.cpu.op_class_0::SimdCmp                    382      0.00%     54.68% # Class of committed instruction
system.cpu.op_class_0::SimdCvt                      0      0.00%     54.68% # Class of committed instruction
system.cpu.op_class_0::SimdMisc                    53      0.00%     54.68% # Class of committed instruction
system.cpu.op_class_0::SimdMult                     0      0.00%     54.68% # Class of committed instruction
system.cpu.op_class_0::SimdMultAcc                  0      0.00%     54.68% # Class of committed instruction
system.cpu.op_class_0::SimdShift                    0      0.00%     54.68% # Class of committed instruction
system.cpu.op_class_0::SimdShiftAcc                 0      0.00%     54.68% # Class of committed instruction
system.cpu.op_class_0::SimdDiv                      0      0.00%     54.68% # Class of committed instruction
system.cpu.op_class_0::SimdSqrt                     0      0.00%     54.68% # Class of committed instruction
system.cpu.op_class_0::SimdFloatAdd            267609      0.26%     54.95% # Class of committed instruction
system.cpu.op_class_0::SimdFloatAlu                 0      0.00%     54.95% # Class of committed instruction
system.cpu.op_class_0::SimdFloatCmp            259630      0.26%     55.20% # Class of committed instruction
system.cpu.op_class_0::SimdFloatCvt            161456      0.16%     55.36% # Class of committed instruction
system.cpu.op_class_0::SimdFloatDiv             54308      0.05%     55.42% # Class of committed instruction
system.cpu.op_class_0::SimdFloatMisc           483618      0.48%     55.90% # Class of committed instruction
system.cpu.op_class_0::SimdFloatMult            33524      0.03%     55.93% # Class of committed instruction
system.cpu.op_class_0::SimdFloatMultAcc         11115      0.01%     55.94% # Class of committed instruction
system.cpu.op_class_0::SimdFloatSqrt                0      0.00%     55.94% # Class of committed instruction
system.cpu.op_class_0::SimdReduceAdd                0      0.00%     55.94% # Class of committed instruction
system.cpu.op_class_0::SimdReduceAlu                0      0.00%     55.94% # Class of committed instruction
system.cpu.op_class_0::SimdReduceCmp                0      0.00%     55.94% # Class of committed instruction
system.cpu.op_class_0::SimdFloatReduceAdd            0      0.00%     55.94% # Class of committed instruction
system.cpu.op_class_0::SimdFloatReduceCmp            0      0.00%     55.94% # Class of committed instruction
system.cpu.op_class_0::SimdAes                      0      0.00%     55.94% # Class of committed instruction
system.cpu.op_class_0::SimdAesMix                   0      0.00%     55.94% # Class of committed instruction
system.cpu.op_class_0::SimdSha1Hash                 0      0.00%     55.94% # Class of committed instruction
system.cpu.op_class_0::SimdSha1Hash2                0      0.00%     55.94% # Class of committed instruction
system.cpu.op_class_0::SimdSha256Hash               0      0.00%     55.94% # Class of committed instruction
system.cpu.op_class_0::SimdSha256Hash2              0      0.00%     55.94% # Class of committed instruction
system.cpu.op_class_0::SimdShaSigma2                0      0.00%     55.94% # Class of committed instruction
system.cpu.op_class_0::SimdShaSigma3                0      0.00%     55.94% # Class of committed instruction
system.cpu.op_class_0::SimdPredAlu                  0      0.00%     55.94% # Class of committed instruction
system.cpu.op_class_0::MemRead               38167610     37.75%     93.69% # Class of committed instruction
system.cpu.op_class_0::MemWrite               6379040      6.31%    100.00% # Class of committed instruction
system.cpu.op_class_0::FloatMemRead                 0      0.00%    100.00% # Class of committed instruction
system.cpu.op_class_0::FloatMemWrite                0      0.00%    100.00% # Class of committed instruction
system.cpu.op_class_0::IprAccess                    0      0.00%    100.00% # Class of committed instruction
system.cpu.op_class_0::InstPrefetch                 0      0.00%    100.00% # Class of committed instruction
system.cpu.op_class_0::total                101102736                       # Class of committed instruction
system.cpu.tickCycles                       115990659                       # Number of cycles that the object actually ticked
system.cpu.workload.numSyscalls                    32                       # Number of system calls
system.membus.snoop_filter.hit_multi_requests            0                       # Number of requests hitting in the snoop filter with multiple (>1) holders of the requested data.
system.membus.snoop_filter.hit_multi_snoops            0                       # Number of snoops hitting in the snoop filter with multiple (>1) holders of the requested data.
system.membus.snoop_filter.hit_single_requests            0                       # Number of requests hitting in the snoop filter with a single holder of the requested data.
system.membus.snoop_filter.hit_single_snoops            0                       # Number of snoops hitting in the snoop filter with a single holder of the requested data.
system.membus.snoop_filter.tot_requests          5489                       # Total number of requests made to the snoop filter.
system.membus.snoop_filter.tot_snoops               0                       # Total number of snoops made to the snoop filter.
system.tol2bus.snoop_filter.hit_multi_requests          913                       # Number of requests hitting in the snoop filter with multiple (>1) holders of the requested data.
system.tol2bus.snoop_filter.hit_multi_snoops            0                       # Number of snoops hitting in the snoop filter with multiple (>1) holders of the requested data.
system.tol2bus.snoop_filter.hit_single_requests        62974                       # Number of requests hitting in the snoop filter with a single holder of the requested data.
system.tol2bus.snoop_filter.hit_single_snoops            0                       # Number of snoops hitting in the snoop filter with a single holder of the requested data.
system.tol2bus.snoop_filter.tot_requests       129219                       # Total number of requests made to the snoop filter.
system.tol2bus.snoop_filter.tot_snoops              0                       # Total number of snoops made to the snoop filter.
system.membus.pwrStateResidencyTicks::UNDEFINED 118990487000                       # Cumulative time (in ticks) in various power states
system.membus.trans_dist::ReadResp               1823                       # Transaction distribution
system.membus.trans_dist::ReadExReq              3666                       # Transaction distribution
system.membus.trans_dist::ReadExResp             3666                       # Transaction distribution
system.membus.trans_dist::ReadSharedReq          1823                       # Transaction distribution
system.membus.pkt_count_system.l2.mem_side::system.mem_ctrls.port        10978                       # Packet count per connected master and slave (bytes)
system.membus.pkt_count::total                  10978                       # Packet count per connected master and slave (bytes)
system.membus.pkt_size_system.l2.mem_side::system.mem_ctrls.port       351296                       # Cumulative packet size per connected master and slave (bytes)
system.membus.pkt_size::total                  351296                       # Cumulative packet size per connected master and slave (bytes)
system.membus.snoops                                0                       # Total snoops (count)
system.membus.snoopTraffic                          0                       # Total snoop traffic (bytes)
system.membus.snoop_fanout::samples              5489                       # Request fanout histogram
system.membus.snoop_fanout::mean                    0                       # Request fanout histogram
system.membus.snoop_fanout::stdev                   0                       # Request fanout histogram
system.membus.snoop_fanout::underflows              0      0.00%      0.00% # Request fanout histogram
system.membus.snoop_fanout::0                    5489    100.00%    100.00% # Request fanout histogram
system.membus.snoop_fanout::1                       0      0.00%    100.00% # Request fanout histogram
system.membus.snoop_fanout::overflows               0      0.00%    100.00% # Request fanout histogram
system.membus.snoop_fanout::min_value               0                       # Request fanout histogram
system.membus.snoop_fanout::max_value               0                       # Request fanout histogram
system.membus.snoop_fanout::total                5489                       # Request fanout histogram
system.membus.respLayer1.occupancy           29266500                       # Layer occupancy (ticks)
system.membus.respLayer1.utilization              0.0                       # Layer utilization (%)
system.membus.reqLayer0.occupancy             5489000                       # Layer occupancy (ticks)
system.membus.reqLayer0.utilization               0.0                       # Layer utilization (%)
system.tol2bus.pwrStateResidencyTicks::UNDEFINED 118990487000                       # Cumulative time (in ticks) in various power states
system.tol2bus.trans_dist::ReadResp             34950                       # Transaction distribution
system.tol2bus.trans_dist::WritebackDirty        56874                       # Transaction distribution
system.tol2bus.trans_dist::WritebackClean         4899                       # Transaction distribution
system.tol2bus.trans_dist::CleanEvict            1185                       # Transaction distribution
system.tol2bus.trans_dist::ReadExReq            31311                       # Transaction distribution
system.tol2bus.trans_dist::ReadExResp           31311                       # Transaction distribution
system.tol2bus.trans_dist::ReadCleanReq          6154                       # Transaction distribution
system.tol2bus.trans_dist::ReadSharedReq        28796                       # Transaction distribution
system.tol2bus.pkt_count_system.cpu.icache.mem_side::system.l2.cpu_side        17207                       # Packet count per connected master and slave (bytes)
system.tol2bus.pkt_count_system.cpu.dcache.mem_side::system.l2.cpu_side       178273                       # Packet count per connected master and slave (bytes)
system.tol2bus.pkt_count::total                195480                       # Packet count per connected master and slave (bytes)
system.tol2bus.pkt_size_system.cpu.icache.mem_side::system.l2.cpu_side       707392                       # Cumulative packet size per connected master and slave (bytes)
system.tol2bus.pkt_size_system.cpu.dcache.mem_side::system.l2.cpu_side      7486784                       # Cumulative packet size per connected master and slave (bytes)
system.tol2bus.pkt_size::total                8194176                       # Cumulative packet size per connected master and slave (bytes)
system.tol2bus.snoops                               0                       # Total snoops (count)
system.tol2bus.snoopTraffic                         0                       # Total snoop traffic (bytes)
system.tol2bus.snoop_fanout::samples            66261                       # Request fanout histogram
system.tol2bus.snoop_fanout::mean            0.014020                       # Request fanout histogram
system.tol2bus.snoop_fanout::stdev           0.117575                       # Request fanout histogram
system.tol2bus.snoop_fanout::underflows             0      0.00%      0.00% # Request fanout histogram
system.tol2bus.snoop_fanout::0                  65332     98.60%     98.60% # Request fanout histogram
system.tol2bus.snoop_fanout::1                    929      1.40%    100.00% # Request fanout histogram
system.tol2bus.snoop_fanout::2                      0      0.00%    100.00% # Request fanout histogram
system.tol2bus.snoop_fanout::overflows              0      0.00%    100.00% # Request fanout histogram
system.tol2bus.snoop_fanout::min_value              0                       # Request fanout histogram
system.tol2bus.snoop_fanout::max_value              1                       # Request fanout histogram
system.tol2bus.snoop_fanout::total              66261                       # Request fanout histogram
system.tol2bus.reqLayer0.occupancy          252765000                       # Layer occupancy (ticks)
system.tol2bus.reqLayer0.utilization              0.2                       # Layer utilization (%)
system.tol2bus.respLayer1.occupancy         180326994                       # Layer occupancy (ticks)
system.tol2bus.respLayer1.utilization             0.2                       # Layer utilization (%)
system.tol2bus.respLayer0.occupancy          18462999                       # Layer occupancy (ticks)
system.tol2bus.respLayer0.utilization             0.0                       # Layer utilization (%)
system.voltage_domain.voltage                       1                       # Voltage in Volts
system.clk_domain.clock                          1000                       # Clock period in ticks
system.l2.pwrStateResidencyTicks::UNDEFINED 118990487000                       # Cumulative time (in ticks) in various power states
system.l2.demand_hits::.cpu.inst                 4850                       # number of demand (read+write) hits
system.l2.demand_hits::.cpu.data                55915                       # number of demand (read+write) hits
system.l2.demand_hits::total                    60765                       # number of demand (read+write) hits
system.l2.overall_hits::.cpu.inst                4850                       # number of overall hits
system.l2.overall_hits::.cpu.data               55915                       # number of overall hits
system.l2.overall_hits::total                   60765                       # number of overall hits
system.l2.demand_misses::.cpu.inst               1304                       # number of demand (read+write) misses
system.l2.demand_misses::.cpu.data               4192                       # number of demand (read+write) misses
system.l2.demand_misses::total                   5496                       # number of demand (read+write) misses
system.l2.overall_misses::.cpu.inst              1304                       # number of overall misses
system.l2.overall_misses::.cpu.data              4192                       # number of overall misses
system.l2.overall_misses::total                  5496                       # number of overall misses
system.l2.demand_miss_latency::.cpu.inst    127034000                       # number of demand (read+write) miss cycles
system.l2.demand_miss_latency::.cpu.data    417268000                       # number of demand (read+write) miss cycles
system.l2.demand_miss_latency::total        544302000                       # number of demand (read+write) miss cycles
system.l2.overall_miss_latency::.cpu.inst    127034000                       # number of overall miss cycles
system.l2.overall_miss_latency::.cpu.data    417268000                       # number of overall miss cycles
system.l2.overall_miss_latency::total       544302000                       # number of overall miss cycles
system.l2.demand_accesses::.cpu.inst             6154                       # number of demand (read+write) accesses
system.l2.demand_accesses::.cpu.data            60107                       # number of demand (read+write) accesses
system.l2.demand_accesses::total                66261                       # number of demand (read+write) accesses
system.l2.overall_accesses::.cpu.inst            6154                       # number of overall (read+write) accesses
system.l2.overall_accesses::.cpu.data           60107                       # number of overall (read+write) accesses
system.l2.overall_accesses::total               66261                       # number of overall (read+write) accesses
system.l2.demand_miss_rate::.cpu.inst        0.211895                       # miss rate for demand accesses
system.l2.demand_miss_rate::.cpu.data        0.069742                       # miss rate for demand accesses
system.l2.demand_miss_rate::total            0.082945                       # miss rate for demand accesses
system.l2.overall_miss_rate::.cpu.inst       0.211895                       # miss rate for overall accesses
system.l2.overall_miss_rate::.cpu.data       0.069742                       # miss rate for overall accesses
system.l2.overall_miss_rate::total           0.082945                       # miss rate for overall accesses
system.l2.demand_avg_miss_latency::.cpu.inst 97418.711656                       # average overall miss latency
system.l2.demand_avg_miss_latency::.cpu.data 99539.122137                       # average overall miss latency
system.l2.demand_avg_miss_latency::total 99036.026201                       # average overall miss latency
system.l2.overall_avg_miss_latency::.cpu.inst 97418.711656                       # average overall miss latency
system.l2.overall_avg_miss_latency::.cpu.data 99539.122137                       # average overall miss latency
system.l2.overall_avg_miss_latency::total 99036.026201                       # average overall miss latency
system.l2.blocked_cycles::no_mshrs                  0                       # number of cycles access was blocked
system.l2.blocked_cycles::no_targets                0                       # number of cycles access was blocked
system.l2.blocked::no_mshrs                         0                       # number of cycles access was blocked
system.l2.blocked::no_targets                       0                       # number of cycles access was blocked
system.l2.avg_blocked_cycles::no_mshrs            nan                       # average number of cycles each access was blocked
system.l2.avg_blocked_cycles::no_targets          nan                       # average number of cycles each access was blocked
system.l2.demand_mshr_hits::.cpu.inst               1                       # number of demand (read+write) MSHR hits
system.l2.demand_mshr_hits::.cpu.data               6                       # number of demand (read+write) MSHR hits
system.l2.demand_mshr_hits::total                   7                       # number of demand (read+write) MSHR hits
system.l2.overall_mshr_hits::.cpu.inst              1                       # number of overall MSHR hits
system.l2.overall_mshr_hits::.cpu.data              6                       # number of overall MSHR hits
system.l2.overall_mshr_hits::total                  7                       # number of overall MSHR hits
system.l2.demand_mshr_misses::.cpu.inst          1303                       # number of demand (read+write) MSHR misses
system.l2.demand_mshr_misses::.cpu.data          4186                       # number of demand (read+write) MSHR misses
system.l2.demand_mshr_misses::total              5489                       # number of demand (read+write) MSHR misses
system.l2.overall_mshr_misses::.cpu.inst         1303                       # number of overall MSHR misses
system.l2.overall_mshr_misses::.cpu.data         4186                       # number of overall MSHR misses
system.l2.overall_mshr_misses::total             5489                       # number of overall MSHR misses
system.l2.demand_mshr_miss_latency::.cpu.inst    100895000                       # number of demand (read+write) MSHR miss cycles
system.l2.demand_mshr_miss_latency::.cpu.data    333097000                       # number of demand (read+write) MSHR miss cycles
system.l2.demand_mshr_miss_latency::total    433992000                       # number of demand (read+write) MSHR miss cycles
system.l2.overall_mshr_miss_latency::.cpu.inst    100895000                       # number of overall MSHR miss cycles
system.l2.overall_mshr_miss_latency::.cpu.data    333097000                       # number of overall MSHR miss cycles
system.l2.overall_mshr_miss_latency::total    433992000                       # number of overall MSHR miss cycles
system.l2.demand_mshr_miss_rate::.cpu.inst     0.211732                       # mshr miss rate for demand accesses
system.l2.demand_mshr_miss_rate::.cpu.data     0.069642                       # mshr miss rate for demand accesses
system.l2.demand_mshr_miss_rate::total       0.082839                       # mshr miss rate for demand accesses
system.l2.overall_mshr_miss_rate::.cpu.inst     0.211732                       # mshr miss rate for overall accesses
system.l2.overall_mshr_miss_rate::.cpu.data     0.069642                       # mshr miss rate for overall accesses
system.l2.overall_mshr_miss_rate::total      0.082839                       # mshr miss rate for overall accesses
system.l2.demand_avg_mshr_miss_latency::.cpu.inst 77432.847276                       # average overall mshr miss latency
system.l2.demand_avg_mshr_miss_latency::.cpu.data 79574.056378                       # average overall mshr miss latency
system.l2.demand_avg_mshr_miss_latency::total 79065.767899                       # average overall mshr miss latency
system.l2.overall_avg_mshr_miss_latency::.cpu.inst 77432.847276                       # average overall mshr miss latency
system.l2.overall_avg_mshr_miss_latency::.cpu.data 79574.056378                       # average overall mshr miss latency
system.l2.overall_avg_mshr_miss_latency::total 79065.767899                       # average overall mshr miss latency
system.l2.replacements                              0                       # number of replacements
system.l2.WritebackDirty_hits::.writebacks        56874                       # number of WritebackDirty hits
system.l2.WritebackDirty_hits::total            56874                       # number of WritebackDirty hits
system.l2.WritebackDirty_accesses::.writebacks        56874                       # number of WritebackDirty accesses(hits+misses)
system.l2.WritebackDirty_accesses::total        56874                       # number of WritebackDirty accesses(hits+misses)
system.l2.WritebackClean_hits::.writebacks         4416                       # number of WritebackClean hits
system.l2.WritebackClean_hits::total             4416                       # number of WritebackClean hits
system.l2.WritebackClean_accesses::.writebacks         4416                       # number of WritebackClean accesses(hits+misses)
system.l2.WritebackClean_accesses::total         4416                       # number of WritebackClean accesses(hits+misses)
system.l2.ReadExReq_hits::.cpu.data             27645                       # number of ReadExReq hits
system.l2.ReadExReq_hits::total                 27645                       # number of ReadExReq hits
system.l2.ReadExReq_misses::.cpu.data            3666                       # number of ReadExReq misses
system.l2.ReadExReq_misses::total                3666                       # number of ReadExReq misses
system.l2.ReadExReq_miss_latency::.cpu.data    363969000                       # number of ReadExReq miss cycles
system.l2.ReadExReq_miss_latency::total     363969000                       # number of ReadExReq miss cycles
system.l2.ReadExReq_accesses::.cpu.data         31311                       # number of ReadExReq accesses(hits+misses)
system.l2.ReadExReq_accesses::total             31311                       # number of ReadExReq accesses(hits+misses)
system.l2.ReadExReq_miss_rate::.cpu.data     0.117083                       # miss rate for ReadExReq accesses
system.l2.ReadExReq_miss_rate::total         0.117083                       # miss rate for ReadExReq accesses
system.l2.ReadExReq_avg_miss_latency::.cpu.data 99282.324059                       # average ReadExReq miss latency
system.l2.ReadExReq_avg_miss_latency::total 99282.324059                       # average ReadExReq miss latency
system.l2.ReadExReq_mshr_misses::.cpu.data         3666                       # number of ReadExReq MSHR misses
system.l2.ReadExReq_mshr_misses::total           3666                       # number of ReadExReq MSHR misses
system.l2.ReadExReq_mshr_miss_latency::.cpu.data    290649000                       # number of ReadExReq MSHR miss cycles
system.l2.ReadExReq_mshr_miss_latency::total    290649000                       # number of ReadExReq MSHR miss cycles
system.l2.ReadExReq_mshr_miss_rate::.cpu.data     0.117083                       # mshr miss rate for ReadExReq accesses
system.l2.ReadExReq_mshr_miss_rate::total     0.117083                       # mshr miss rate for ReadExReq accesses
system.l2.ReadExReq_avg_mshr_miss_latency::.cpu.data 79282.324059                       # average ReadExReq mshr miss latency
system.l2.ReadExReq_avg_mshr_miss_latency::total 79282.324059                       # average ReadExReq mshr miss latency
system.l2.ReadCleanReq_hits::.cpu.inst           4850                       # number of ReadCleanReq hits
system.l2.ReadCleanReq_hits::total               4850                       # number of ReadCleanReq hits
system.l2.ReadCleanReq_misses::.cpu.inst         1304                       # number of ReadCleanReq misses
system.l2.ReadCleanReq_misses::total             1304                       # number of ReadCleanReq misses
system.l2.ReadCleanReq_miss_latency::.cpu.inst    127034000                       # number of ReadCleanReq miss cycles
system.l2.ReadCleanReq_miss_latency::total    127034000                       # number of ReadCleanReq miss cycles
system.l2.ReadCleanReq_accesses::.cpu.inst         6154                       # number of ReadCleanReq accesses(hits+misses)
system.l2.ReadCleanReq_accesses::total           6154                       # number of ReadCleanReq accesses(hits+misses)
system.l2.ReadCleanReq_miss_rate::.cpu.inst     0.211895                       # miss rate for ReadCleanReq accesses
system.l2.ReadCleanReq_miss_rate::total      0.211895                       # miss rate for ReadCleanReq accesses
system.l2.ReadCleanReq_avg_miss_latency::.cpu.inst 97418.711656                       # average ReadCleanReq miss latency
system.l2.ReadCleanReq_avg_miss_latency::total 97418.711656                       # average ReadCleanReq miss latency
system.l2.ReadCleanReq_mshr_hits::.cpu.inst            1                       # number of ReadCleanReq MSHR hits
system.l2.ReadCleanReq_mshr_hits::total             1                       # number of ReadCleanReq MSHR hits
system.l2.ReadCleanReq_mshr_misses::.cpu.inst         1303                       # number of ReadCleanReq MSHR misses
system.l2.ReadCleanReq_mshr_misses::total         1303                       # number of ReadCleanReq MSHR misses
system.l2.ReadCleanReq_mshr_miss_latency::.cpu.inst    100895000                       # number of ReadCleanReq MSHR miss cycles
system.l2.ReadCleanReq_mshr_miss_latency::total    100895000                       # number of ReadCleanReq MSHR miss cycles
system.l2.ReadCleanReq_mshr_miss_rate::.cpu.inst     0.211732                       # mshr miss rate for ReadCleanReq accesses
system.l2.ReadCleanReq_mshr_miss_rate::total     0.211732                       # mshr miss rate for ReadCleanReq accesses
system.l2.ReadCleanReq_avg_mshr_miss_latency::.cpu.inst 77432.847276                       # average ReadCleanReq mshr miss latency
system.l2.ReadCleanReq_avg_mshr_miss_latency::total 77432.847276                       # average ReadCleanReq mshr miss latency
system.l2.ReadSharedReq_hits::.cpu.data         28270                       # number of ReadSharedReq hits
system.l2.ReadSharedReq_hits::total             28270                       # number of ReadSharedReq hits
system.l2.ReadSharedReq_misses::.cpu.data          526                       # number of ReadSharedReq misses
system.l2.ReadSharedReq_misses::total             526                       # number of ReadSharedReq misses
system.l2.ReadSharedReq_miss_latency::.cpu.data     53299000                       # number of ReadSharedReq miss cycles
system.l2.ReadSharedReq_miss_latency::total     53299000                       # number of ReadSharedReq miss cycles
system.l2.ReadSharedReq_accesses::.cpu.data        28796                       # number of ReadSharedReq accesses(hits+misses)
system.l2.ReadSharedReq_accesses::total         28796                       # number of ReadSharedReq accesses(hits+misses)
system.l2.ReadSharedReq_miss_rate::.cpu.data     0.018266                       # miss rate for ReadSharedReq accesses
system.l2.ReadSharedReq_miss_rate::total     0.018266                       # miss rate for ReadSharedReq accesses
system.l2.ReadSharedReq_avg_miss_latency::.cpu.data 101328.897338                       # average ReadSharedReq miss latency
system.l2.ReadSharedReq_avg_miss_latency::total 101328.897338                       # average ReadSharedReq miss latency
system.l2.ReadSharedReq_mshr_hits::.cpu.data            6                       # number of ReadSharedReq MSHR hits
system.l2.ReadSharedReq_mshr_hits::total            6                       # number of ReadSharedReq MSHR hits
system.l2.ReadSharedReq_mshr_misses::.cpu.data          520                       # number of ReadSharedReq MSHR misses
system.l2.ReadSharedReq_mshr_misses::total          520                       # number of ReadSharedReq MSHR misses
system.l2.ReadSharedReq_mshr_miss_latency::.cpu.data     42448000                       # number of ReadSharedReq MSHR miss cycles
system.l2.ReadSharedReq_mshr_miss_latency::total     42448000                       # number of ReadSharedReq MSHR miss cycles
system.l2.ReadSharedReq_mshr_miss_rate::.cpu.data     0.018058                       # mshr miss rate for ReadSharedReq accesses
system.l2.ReadSharedReq_mshr_miss_rate::total     0.018058                       # mshr miss rate for ReadSharedReq accesses
system.l2.ReadSharedReq_avg_mshr_miss_latency::.cpu.data 81630.769231                       # average ReadSharedReq mshr miss latency
system.l2.ReadSharedReq_avg_mshr_miss_latency::total 81630.769231                       # average ReadSharedReq mshr miss latency
system.l2.tags.pwrStateResidencyTicks::UNDEFINED 118990487000                       # Cumulative time (in ticks) in various power states
system.l2.tags.tagsinuse                  5288.043509                       # Cycle average of tags in use
system.l2.tags.total_refs                      128299                       # Total number of references to valid blocks.
system.l2.tags.sampled_refs                      5489                       # Sample count of references to valid blocks.
system.l2.tags.avg_refs                     23.373839                       # Average number of references to valid blocks.
system.l2.tags.warmup_cycle                     87000                       # Cycle when the warmup percentage was hit.
system.l2.tags.occ_blocks::.cpu.inst      1297.053132                       # Average occupied blocks per requestor
system.l2.tags.occ_blocks::.cpu.data      3990.990377                       # Average occupied blocks per requestor
system.l2.tags.occ_percent::.cpu.inst        0.019791                       # Average percentage of cache occupancy
system.l2.tags.occ_percent::.cpu.data        0.060898                       # Average percentage of cache occupancy
system.l2.tags.occ_percent::total            0.080689                       # Average percentage of cache occupancy
system.l2.tags.occ_task_id_blocks::1024          5489                       # Occupied blocks per task id
system.l2.tags.age_task_id_blocks_1024::4         5489                       # Occupied blocks per task id
system.l2.tags.occ_task_id_percent::1024     0.083755                       # Percentage of cache occupancy per task id
system.l2.tags.tag_accesses                    133795                       # Number of tag accesses
system.l2.tags.data_accesses                   133795                       # Number of data accesses
system.cpu_voltage_domain.voltage                   1                       # Voltage in Volts
system.mem_ctrls.pwrStateResidencyTicks::UNDEFINED 118990487000                       # Cumulative time (in ticks) in various power states
system.mem_ctrls.bytes_read::.cpu.inst          83392                       # Number of bytes read from this memory
system.mem_ctrls.bytes_read::.cpu.data         267904                       # Number of bytes read from this memory
system.mem_ctrls.bytes_read::total             351296                       # Number of bytes read from this memory
system.mem_ctrls.bytes_inst_read::.cpu.inst        83392                       # Number of instructions bytes read from this memory
system.mem_ctrls.bytes_inst_read::total         83392                       # Number of instructions bytes read from this memory
system.mem_ctrls.num_reads::.cpu.inst            1303                       # Number of read requests responded to by this memory
system.mem_ctrls.num_reads::.cpu.data            4186                       # Number of read requests responded to by this memory
system.mem_ctrls.num_reads::total                5489                       # Number of read requests responded to by this memory
system.mem_ctrls.bw_read::.cpu.inst            700829                       # Total read bandwidth from this memory (bytes/s)
system.mem_ctrls.bw_read::.cpu.data           2251474                       # Total read bandwidth from this memory (bytes/s)
system.mem_ctrls.bw_read::total               2952303                       # Total read bandwidth from this memory (bytes/s)
system.mem_ctrls.bw_inst_read::.cpu.inst       700829                       # Instruction read bandwidth from this memory (bytes/s)
system.mem_ctrls.bw_inst_read::total           700829                       # Instruction read bandwidth from this memory (bytes/s)
system.mem_ctrls.bw_total::.cpu.inst           700829                       # Total bandwidth to/from this memory (bytes/s)
system.mem_ctrls.bw_total::.cpu.data          2251474                       # Total bandwidth to/from this memory (bytes/s)
system.mem_ctrls.bw_total::total              2952303                       # Total bandwidth to/from this memory (bytes/s)
system.mem_ctrls.avgPriority_.cpu.inst::samples      1303.00                       # Average QoS priority value for accepted requests
system.mem_ctrls.avgPriority_.cpu.data::samples      4186.00                       # Average QoS priority value for accepted requests
system.mem_ctrls.priorityMinLatency      0.000000018750                       # per QoS priority minimum request to response latency (s)
system.mem_ctrls.priorityMaxLatency      0.000000576000                       # per QoS priority maximum request to response latency (s)
system.mem_ctrls.numReadWriteTurnArounds            0                       # Number of turnarounds from READ to WRITE
system.mem_ctrls.numWriteReadTurnArounds            0                       # Number of turnarounds from WRITE to READ
system.mem_ctrls.numStayReadState               41538                       # Number of times bus staying in READ state
system.mem_ctrls.numStayWriteState                  0                       # Number of times bus staying in WRITE state
system.mem_ctrls.readReqs                        5489                       # Number of read requests accepted
system.mem_ctrls.writeReqs                          0                       # Number of write requests accepted
system.mem_ctrls.readBursts                      5489                       # Number of DRAM read bursts, including those serviced by the write queue
system.mem_ctrls.writeBursts                        0                       # Number of DRAM write bursts, including those merged in the write queue
system.mem_ctrls.servicedByWrQ                      0                       # Number of DRAM read bursts serviced by the write queue
system.mem_ctrls.mergedWrBursts                     0                       # Number of DRAM write bursts merged with an existing one
system.mem_ctrls.neitherReadNorWriteReqs            0                       # Number of requests that are neither read nor write
system.mem_ctrls.perBankRdBursts::0               254                       # Per bank write bursts
system.mem_ctrls.perBankRdBursts::1               296                       # Per bank write bursts
system.mem_ctrls.perBankRdBursts::2               186                       # Per bank write bursts
system.mem_ctrls.perBankRdBursts::3               375                       # Per bank write bursts
system.mem_ctrls.perBankRdBursts::4               419                       # Per bank write bursts
system.mem_ctrls.perBankRdBursts::5               373                       # Per bank write bursts
system.mem_ctrls.perBankRdBursts::6               377                       # Per bank write bursts
system.mem_ctrls.perBankRdBursts::7               400                       # Per bank write bursts
system.mem_ctrls.perBankRdBursts::8               359                       # Per bank write bursts
system.mem_ctrls.perBankRdBursts::9               372                       # Per bank write bursts
system.mem_ctrls.perBankRdBursts::10              410                       # Per bank write bursts
system.mem_ctrls.perBankRdBursts::11              288                       # Per bank write bursts
system.mem_ctrls.perBankRdBursts::12              311                       # Per bank write bursts
system.mem_ctrls.perBankRdBursts::13              339                       # Per bank write bursts
system.mem_ctrls.perBankRdBursts::14              399                       # Per bank write bursts
system.mem_ctrls.perBankRdBursts::15              331                       # Per bank write bursts
system.mem_ctrls.perBankWrBursts::0                 0                       # Per bank write bursts
system.mem_ctrls.perBankWrBursts::1                 0                       # Per bank write bursts
system.mem_ctrls.perBankWrBursts::2                 0                       # Per bank write bursts
system.mem_ctrls.perBankWrBursts::3                 0                       # Per bank write bursts
system.mem_ctrls.perBankWrBursts::4                 0                       # Per bank write bursts
system.mem_ctrls.perBankWrBursts::5                 0                       # Per bank write bursts
system.mem_ctrls.perBankWrBursts::6                 0                       # Per bank write bursts
system.mem_ctrls.perBankWrBursts::7                 0                       # Per bank write bursts
system.mem_ctrls.perBankWrBursts::8                 0                       # Per bank write bursts
system.mem_ctrls.perBankWrBursts::9                 0                       # Per bank write bursts
system.mem_ctrls.perBankWrBursts::10                0                       # Per bank write bursts
system.mem_ctrls.perBankWrBursts::11                0                       # Per bank write bursts
system.mem_ctrls.perBankWrBursts::12                0                       # Per bank write bursts
system.mem_ctrls.perBankWrBursts::13                0                       # Per bank write bursts
system.mem_ctrls.perBankWrBursts::14                0                       # Per bank write bursts
system.mem_ctrls.perBankWrBursts::15                0                       # Per bank write bursts
system.mem_ctrls.avgRdQLen                       1.00                       # Average read queue length when enqueuing
system.mem_ctrls.avgWrQLen                       0.00                       # Average write queue length when enqueuing
system.mem_ctrls.totQLat                     49282000                       # Total ticks spent queuing
system.mem_ctrls.totBusLat                   27445000                       # Total ticks spent in databus transfers
system.mem_ctrls.totMemAccLat               152200750                       # Total ticks spent from burst creation until serviced by the DRAM
system.mem_ctrls.avgQLat                      8978.32                       # Average queueing delay per DRAM burst
system.mem_ctrls.avgBusLat                    5000.00                       # Average bus latency per DRAM burst
system.mem_ctrls.avgMemAccLat                27728.32                       # Average memory access latency per DRAM burst
system.mem_ctrls.numRdRetry                         0                       # Number of times read queue was full causing retry
system.mem_ctrls.numWrRetry                         0                       # Number of times write queue was full causing retry
system.mem_ctrls.readRowHits                     3696                       # Number of row buffer hits during reads
system.mem_ctrls.writeRowHits                       0                       # Number of row buffer hits during writes
system.mem_ctrls.readRowHitRate                 67.33                       # Row buffer hit rate for reads
system.mem_ctrls.writeRowHitRate                  nan                       # Row buffer hit rate for writes
system.mem_ctrls.readPktSize::0                     0                       # Read request sizes (log2)
system.mem_ctrls.readPktSize::1                     0                       # Read request sizes (log2)
system.mem_ctrls.readPktSize::2                     0                       # Read request sizes (log2)
system.mem_ctrls.readPktSize::3                     0                       # Read request sizes (log2)
system.mem_ctrls.readPktSize::4                     0                       # Read request sizes (log2)
system.mem_ctrls.readPktSize::5                     0                       # Read request sizes (log2)
system.mem_ctrls.readPktSize::6                  5489                       # Read request sizes (log2)
system.mem_ctrls.writePktSize::0                    0                       # Write request sizes (log2)
system.mem_ctrls.writePktSize::1                    0                       # Write request sizes (log2)
system.mem_ctrls.writePktSize::2                    0                       # Write request sizes (log2)
system.mem_ctrls.writePktSize::3                    0                       # Write request sizes (log2)
system.mem_ctrls.writePktSize::4                    0                       # Write request sizes (log2)
system.mem_ctrls.writePktSize::5                    0                       # Write request sizes (log2)
system.mem_ctrls.writePktSize::6                    0                       # Write request sizes (log2)
system.mem_ctrls.rdQLenPdf::0                    5267                       # What read queue length does an incoming req see
system.mem_ctrls.rdQLenPdf::1                     205                       # What read queue length does an incoming req see
system.mem_ctrls.rdQLenPdf::2                      17                       # What read queue length does an incoming req see
system.mem_ctrls.rdQLenPdf::3                       0                       # What read queue length does an incoming req see
system.mem_ctrls.rdQLenPdf::4                       0                       # What read queue length does an incoming req see
system.mem_ctrls.rdQLenPdf::5                       0                       # What read queue length does an incoming req see
system.mem_ctrls.rdQLenPdf::6                       0                       # What read queue length does an incoming req see
system.mem_ctrls.rdQLenPdf::7                       0                       # What read queue length does an incoming req see
system.mem_ctrls.rdQLenPdf::8                       0                       # What read queue length does an incoming req see
system.mem_ctrls.rdQLenPdf::9                       0                       # What read queue length does an incoming req see
system.mem_ctrls.rdQLenPdf::10                      0                       # What read queue length does an incoming req see
system.mem_ctrls.rdQLenPdf::11                      0                       # What read queue length does an incoming req see
system.mem_ctrls.rdQLenPdf::12                      0                       # What read queue length does an incoming req see
system.mem_ctrls.rdQLenPdf::13                      0                       # What read queue length does an incoming req see
system.mem_ctrls.rdQLenPdf::14                      0                       # What read queue length does an incoming req see
system.mem_ctrls.rdQLenPdf::15                      0                       # What read queue length does an incoming req see
system.mem_ctrls.rdQLenPdf::16                      0                       # What read queue length does an incoming req see
system.mem_ctrls.rdQLenPdf::17                      0                       # What read queue length does an incoming req see
system.mem_ctrls.rdQLenPdf::18                      0                       # What read queue length does an incoming req see
system.mem_ctrls.rdQLenPdf::19                      0                       # What read queue length does an incoming req see
system.mem_ctrls.rdQLenPdf::20                      0                       # What read queue length does an incoming req see
system.mem_ctrls.rdQLenPdf::21                      0                       # What read queue length does an incoming req see
system.mem_ctrls.rdQLenPdf::22                      0                       # What read queue length does an incoming req see
system.mem_ctrls.rdQLenPdf::23                      0                       # What read queue length does an incoming req see
system.mem_ctrls.rdQLenPdf::24                      0                       # What read queue length does an incoming req see
system.mem_ctrls.rdQLenPdf::25                      0                       # What read queue length does an incoming req see
system.mem_ctrls.rdQLenPdf::26                      0                       # What read queue length does an incoming req see
system.mem_ctrls.rdQLenPdf::27                      0                       # What read queue length does an incoming req see
system.mem_ctrls.rdQLenPdf::28                      0                       # What read queue length does an incoming req see
system.mem_ctrls.rdQLenPdf::29                      0                       # What read queue length does an incoming req see
system.mem_ctrls.rdQLenPdf::30                      0                       # What read queue length does an incoming req see
system.mem_ctrls.rdQLenPdf::31                      0                       # What read queue length does an incoming req see
system.mem_ctrls.wrQLenPdf::0                       0                       # What write queue length does an incoming req see
system.mem_ctrls.wrQLenPdf::1                       0                       # What write queue length does an incoming req see
system.mem_ctrls.wrQLenPdf::2                       0                       # What write queue length does an incoming req see
system.mem_ctrls.wrQLenPdf::3                       0                       # What write queue length does an incoming req see
system.mem_ctrls.wrQLenPdf::4                       0                       # What write queue length does an incoming req see
system.mem_ctrls.wrQLenPdf::5                       0                       # What write queue length does an incoming req see
system.mem_ctrls.wrQLenPdf::6                       0                       # What write queue length does an incoming req see
system.mem_ctrls.wrQLenPdf::7                       0                       # What write queue length does an incoming req see
system.mem_ctrls.wrQLenPdf::8                       0                       # What write queue length does an incoming req see
system.mem_ctrls.wrQLenPdf::9                       0                       # What write queue length does an incoming req see
system.mem_ctrls.wrQLenPdf::10                      0                       # What write queue length does an incoming req see
system.mem_ctrls.wrQLenPdf::11                      0                       # What write queue length does an incoming req see
system.mem_ctrls.wrQLenPdf::12                      0                       # What write queue length does an incoming req see
system.mem_ctrls.wrQLenPdf::13                      0                       # What write queue length does an incoming req see
system.mem_ctrls.wrQLenPdf::14                      0                       # What write queue length does an incoming req see
system.mem_ctrls.wrQLenPdf::15                      0                       # What write queue length does an incoming req see
system.mem_ctrls.wrQLenPdf::16                      0                       # What write queue length does an incoming req see
system.mem_ctrls.wrQLenPdf::17                      0                       # What write queue length does an incoming req see
system.mem_ctrls.wrQLenPdf::18                      0                       # What write queue length does an incoming req see
system.mem_ctrls.wrQLenPdf::19                      0                       # What write queue length does an incoming req see
system.mem_ctrls.wrQLenPdf::20                      0                       # What write queue length does an incoming req see
system.mem_ctrls.wrQLenPdf::21                      0                       # What write queue length does an incoming req see
system.mem_ctrls.wrQLenPdf::22                      0                       # What write queue length does an incoming req see
system.mem_ctrls.wrQLenPdf::23                      0                       # What write queue length does an incoming req see
system.mem_ctrls.wrQLenPdf::24                      0                       # What write queue length does an incoming req see
system.mem_ctrls.wrQLenPdf::25                      0                       # What write queue length does an incoming req see
system.mem_ctrls.wrQLenPdf::26                      0                       # What write queue length does an incoming req see
system.mem_ctrls.wrQLenPdf::27                      0                       # What write queue length does an incoming req see
system.mem_ctrls.wrQLenPdf::28                      0                       # What write queue length does an incoming req see
system.mem_ctrls.wrQLenPdf::29                      0                       # What write queue length does an incoming req see
system.mem_ctrls.wrQLenPdf::30                      0                       # What write queue length does an incoming req see
system.mem_ctrls.wrQLenPdf::31                      0                       # What write queue length does an incoming req see
system.mem_ctrls.wrQLenPdf::32                      0                       # What write queue length does an incoming req see
system.mem_ctrls.wrQLenPdf::33                      0                       # What write queue length does an incoming req see
system.mem_ctrls.wrQLenPdf::34                      0                       # What write queue length does an incoming req see
system.mem_ctrls.wrQLenPdf::35                      0                       # What write queue length does an incoming req see
system.mem_ctrls.wrQLenPdf::36                      0                       # What write queue length does an incoming req see
system.mem_ctrls.wrQLenPdf::37                      0                       # What write queue length does an incoming req see
system.mem_ctrls.wrQLenPdf::38                      0                       # What write queue length does an incoming req see
system.mem_ctrls.wrQLenPdf::39                      0                       # What write queue length does an incoming req see
system.mem_ctrls.wrQLenPdf::40                      0                       # What write queue length does an incoming req see
system.mem_ctrls.wrQLenPdf::41                      0                       # What write queue length does an incoming req see
system.mem_ctrls.wrQLenPdf::42                      0                       # What write queue length does an incoming req see
system.mem_ctrls.wrQLenPdf::43                      0                       # What write queue length does an incoming req see
system.mem_ctrls.wrQLenPdf::44                      0                       # What write queue length does an incoming req see
system.mem_ctrls.wrQLenPdf::45                      0                       # What write queue length does an incoming req see
system.mem_ctrls.wrQLenPdf::46                      0                       # What write queue length does an incoming req see
system.mem_ctrls.wrQLenPdf::47                      0                       # What write queue length does an incoming req see
system.mem_ctrls.wrQLenPdf::48                      0                       # What write queue length does an incoming req see
system.mem_ctrls.wrQLenPdf::49                      0                       # What write queue length does an incoming req see
system.mem_ctrls.wrQLenPdf::50                      0                       # What write queue length does an incoming req see
system.mem_ctrls.wrQLenPdf::51                      0                       # What write queue length does an incoming req see
system.mem_ctrls.wrQLenPdf::52                      0                       # What write queue length does an incoming req see
system.mem_ctrls.wrQLenPdf::53                      0                       # What write queue length does an incoming req see
system.mem_ctrls.wrQLenPdf::54                      0                       # What write queue length does an incoming req see
system.mem_ctrls.wrQLenPdf::55                      0                       # What write queue length does an incoming req see
system.mem_ctrls.wrQLenPdf::56                      0                       # What write queue length does an incoming req see
system.mem_ctrls.wrQLenPdf::57                      0                       # What write queue length does an incoming req see
system.mem_ctrls.wrQLenPdf::58                      0                       # What write queue length does an incoming req see
system.mem_ctrls.wrQLenPdf::59                      0                       # What write queue length does an incoming req see
system.mem_ctrls.wrQLenPdf::60                      0                       # What write queue length does an incoming req see
system.mem_ctrls.wrQLenPdf::61                      0                       # What write queue length does an incoming req see
system.mem_ctrls.wrQLenPdf::62                      0                       # What write queue length does an incoming req see
system.mem_ctrls.wrQLenPdf::63                      0                       # What write queue length does an incoming req see
system.mem_ctrls.bytesPerActivate::samples         1793                       # Bytes accessed per row activation
system.mem_ctrls.bytesPerActivate::mean    195.926380                       # Bytes accessed per row activation
system.mem_ctrls.bytesPerActivate::gmean   124.806961                       # Bytes accessed per row activation
system.mem_ctrls.bytesPerActivate::stdev   253.880744                       # Bytes accessed per row activation
system.mem_ctrls.bytesPerActivate::0-127          788     43.95%     43.95% # Bytes accessed per row activation
system.mem_ctrls.bytesPerActivate::128-255          690     38.48%     82.43% # Bytes accessed per row activation
system.mem_ctrls.bytesPerActivate::256-383           81      4.52%     86.95% # Bytes accessed per row activation
system.mem_ctrls.bytesPerActivate::384-511           43      2.40%     89.35% # Bytes accessed per row activation
system.mem_ctrls.bytesPerActivate::512-639           28      1.56%     90.91% # Bytes accessed per row activation
system.mem_ctrls.bytesPerActivate::640-767           22      1.23%     92.14% # Bytes accessed per row activation
system.mem_ctrls.bytesPerActivate::768-895           19      1.06%     93.20% # Bytes accessed per row activation
system.mem_ctrls.bytesPerActivate::896-1023           18      1.00%     94.20% # Bytes accessed per row activation
system.mem_ctrls.bytesPerActivate::1024-1151          104      5.80%    100.00% # Bytes accessed per row activation
system.mem_ctrls.bytesPerActivate::total         1793                       # Bytes accessed per row activation
system.mem_ctrls.bytesReadDRAM                 351296                       # Total number of bytes read from DRAM
system.mem_ctrls.bytesReadWrQ                       0                       # Total number of bytes read from write queue
system.mem_ctrls.bytesWritten                       0                       # Total number of bytes written to DRAM
system.mem_ctrls.bytesReadSys                  351296                       # Total read bytes from the system interface side
system.mem_ctrls.bytesWrittenSys                    0                       # Total written bytes from the system interface side
system.mem_ctrls.avgRdBW                         2.95                       # Average DRAM read bandwidth in MiByte/s
system.mem_ctrls.avgWrBW                         0.00                       # Average achieved write bandwidth in MiByte/s
system.mem_ctrls.avgRdBWSys                      2.95                       # Average system read bandwidth in MiByte/s
system.mem_ctrls.avgWrBWSys                      0.00                       # Average system write bandwidth in MiByte/s
system.mem_ctrls.peakBW                      12800.00                       # Theoretical peak bandwidth in MiByte/s
system.mem_ctrls.busUtil                         0.02                       # Data bus utilization in percentage
system.mem_ctrls.busUtilRead                     0.02                       # Data bus utilization in percentage for reads
system.mem_ctrls.busUtilWrite                    0.00                       # Data bus utilization in percentage for writes
system.mem_ctrls.totGap                   32087191000                       # Total gap between requests
system.mem_ctrls.avgGap                    5845726.18                       # Average gap between requests
system.mem_ctrls.masterReadBytes::.cpu.inst        83392                       # Per-master bytes read from memory
system.mem_ctrls.masterReadBytes::.cpu.data       267904                       # Per-master bytes read from memory
system.mem_ctrls.masterReadRate::.cpu.inst 700829.134349202155                       # Per-master bytes read from memory rate (Bytes/sec)
system.mem_ctrls.masterReadRate::.cpu.data 2251474.103135656565                       # Per-master bytes read from memory rate (Bytes/sec)
system.mem_ctrls.masterReadAccesses::.cpu.inst         1303                       # Per-master read serviced memory accesses
system.mem_ctrls.masterReadAccesses::.cpu.data         4186                       # Per-master read serviced memory accesses
system.mem_ctrls.masterReadTotalLat::.cpu.inst     34024000                       # Per-master read total memory access latency
system.mem_ctrls.masterReadTotalLat::.cpu.data    118176750                       # Per-master read total memory access latency
system.mem_ctrls.masterReadAvgLat::.cpu.inst     26112.05                       # Per-master read average memory access latency
system.mem_ctrls.masterReadAvgLat::.cpu.data     28231.43                       # Per-master read average memory access latency
system.mem_ctrls.pageHitRate                    67.33                       # Row buffer hit rate, read and write combined
system.mem_ctrls.rank1.actEnergy              6383160                       # Energy for activate commands per rank (pJ)
[...]
system.cpu.icache.tags.occ_percent::total     0.304986                       # Average percentage of cache occupancy
system.cpu.icache.tags.occ_task_id_blocks::1024         1255                       # Occupied blocks per task id
system.cpu.icache.tags.age_task_id_blocks_1024::4         1255                       # Occupied blocks per task id
system.cpu.icache.tags.occ_task_id_percent::1024     0.306396                       # Percentage of cache occupancy per task id
system.cpu.icache.tags.tag_accesses          17318544                       # Number of tag accesses
system.cpu.icache.tags.data_accesses         17318544                       # Number of data accesses
system.cpu.dtb.walker.pwrStateResidencyTicks::UNDEFINED 118990487000                       # Cumulative time (in ticks) in various power states
system.cpu.dtb.stage2_mmu.stage2_tlb.walker.pwrStateResidencyTicks::UNDEFINED 118990487000                       # Cumulative time (in ticks) in various power states
system.cpu.dcache.pwrStateResidencyTicks::UNDEFINED 118990487000                       # Cumulative time (in ticks) in various power states
system.cpu.dcache.demand_hits::.cpu.data     43859314                       # number of demand (read+write) hits
system.cpu.dcache.demand_hits::total         43859314                       # number of demand (read+write) hits
system.cpu.dcache.overall_hits::.cpu.data     43867920                       # number of overall hits
system.cpu.dcache.overall_hits::total        43867920                       # number of overall hits
system.cpu.dcache.demand_misses::.cpu.data        63936                       # number of demand (read+write) misses
system.cpu.dcache.demand_misses::total          63936                       # number of demand (read+write) misses
system.cpu.dcache.overall_misses::.cpu.data        64045                       # number of overall misses
system.cpu.dcache.overall_misses::total         64045                       # number of overall misses
system.cpu.dcache.demand_miss_latency::.cpu.data   2176070000                       # number of demand (read+write) miss cycles
system.cpu.dcache.demand_miss_latency::total   2176070000                       # number of demand (read+write) miss cycles
system.cpu.dcache.overall_miss_latency::.cpu.data   2176070000                       # number of overall miss cycles
system.cpu.dcache.overall_miss_latency::total   2176070000                       # number of overall miss cycles
system.cpu.dcache.demand_accesses::.cpu.data     43923250                       # number of demand (read+write) accesses
system.cpu.dcache.demand_accesses::total     43923250                       # number of demand (read+write) accesses
system.cpu.dcache.overall_accesses::.cpu.data     43931965                       # number of overall (read+write) accesses
system.cpu.dcache.overall_accesses::total     43931965                       # number of overall (read+write) accesses
system.cpu.dcache.demand_miss_rate::.cpu.data     0.001456                       # miss rate for demand accesses
system.cpu.dcache.demand_miss_rate::total     0.001456                       # miss rate for demand accesses
system.cpu.dcache.overall_miss_rate::.cpu.data     0.001458                       # miss rate for overall accesses
system.cpu.dcache.overall_miss_rate::total     0.001458                       # miss rate for overall accesses
system.cpu.dcache.demand_avg_miss_latency::.cpu.data 34035.128879                       # average overall miss latency
system.cpu.dcache.demand_avg_miss_latency::total 34035.128879                       # average overall miss latency
system.cpu.dcache.overall_avg_miss_latency::.cpu.data 33977.203529                       # average overall miss latency
system.cpu.dcache.overall_avg_miss_latency::total 33977.203529                       # average overall miss latency
system.cpu.dcache.blocked_cycles::no_mshrs          185                       # number of cycles access was blocked
system.cpu.dcache.blocked_cycles::no_targets            0                       # number of cycles access was blocked
system.cpu.dcache.blocked::no_mshrs                 3                       # number of cycles access was blocked
system.cpu.dcache.blocked::no_targets               0                       # number of cycles access was blocked
system.cpu.dcache.avg_blocked_cycles::no_mshrs    61.666667                       # average number of cycles each access was blocked
system.cpu.dcache.avg_blocked_cycles::no_targets          nan                       # average number of cycles each access was blocked
system.cpu.dcache.writebacks::.writebacks        56874                       # number of writebacks
system.cpu.dcache.writebacks::total             56874                       # number of writebacks
system.cpu.dcache.demand_mshr_hits::.cpu.data         3928                       # number of demand (read+write) MSHR hits
system.cpu.dcache.demand_mshr_hits::total         3928                       # number of demand (read+write) MSHR hits
system.cpu.dcache.overall_mshr_hits::.cpu.data         3928                       # number of overall MSHR hits
system.cpu.dcache.overall_mshr_hits::total         3928                       # number of overall MSHR hits
system.cpu.dcache.demand_mshr_misses::.cpu.data        60008                       # number of demand (read+write) MSHR misses
system.cpu.dcache.demand_mshr_misses::total        60008                       # number of demand (read+write) MSHR misses
system.cpu.dcache.overall_mshr_misses::.cpu.data        60106                       # number of overall MSHR misses
system.cpu.dcache.overall_mshr_misses::total        60106                       # number of overall MSHR misses
system.cpu.dcache.demand_mshr_miss_latency::.cpu.data   1798629000                       # number of demand (read+write) MSHR miss cycles
system.cpu.dcache.demand_mshr_miss_latency::total   1798629000                       # number of demand (read+write) MSHR miss cycles
system.cpu.dcache.overall_mshr_miss_latency::.cpu.data   1808056000                       # number of overall MSHR miss cycles
system.cpu.dcache.overall_mshr_miss_latency::total   1808056000                       # number of overall MSHR miss cycles
system.cpu.dcache.demand_mshr_miss_rate::.cpu.data     0.001366                       # mshr miss rate for demand accesses
system.cpu.dcache.demand_mshr_miss_rate::total     0.001366                       # mshr miss rate for demand accesses
system.cpu.dcache.overall_mshr_miss_rate::.cpu.data     0.001368                       # mshr miss rate for overall accesses
system.cpu.dcache.overall_mshr_miss_rate::total     0.001368                       # mshr miss rate for overall accesses
system.cpu.dcache.demand_avg_mshr_miss_latency::.cpu.data 29973.153580                       # average overall mshr miss latency
system.cpu.dcache.demand_avg_mshr_miss_latency::total 29973.153580                       # average overall mshr miss latency
system.cpu.dcache.overall_avg_mshr_miss_latency::.cpu.data 30081.123349                       # average overall mshr miss latency
system.cpu.dcache.overall_avg_mshr_miss_latency::total 30081.123349                       # average overall mshr miss latency
system.cpu.dcache.replacements                  58059                       # number of replacements
system.cpu.dcache.ReadReq_hits::.cpu.data     37573343                       # number of ReadReq hits
system.cpu.dcache.ReadReq_hits::total        37573343                       # number of ReadReq hits
system.cpu.dcache.ReadReq_misses::.cpu.data        29061                       # number of ReadReq misses
system.cpu.dcache.ReadReq_misses::total         29061                       # number of ReadReq misses
system.cpu.dcache.ReadReq_miss_latency::.cpu.data    825323000                       # number of ReadReq miss cycles
system.cpu.dcache.ReadReq_miss_latency::total    825323000                       # number of ReadReq miss cycles
system.cpu.dcache.ReadReq_accesses::.cpu.data     37602404                       # number of ReadReq accesses(hits+misses)
system.cpu.dcache.ReadReq_accesses::total     37602404                       # number of ReadReq accesses(hits+misses)
system.cpu.dcache.ReadReq_miss_rate::.cpu.data     0.000773                       # miss rate for ReadReq accesses
system.cpu.dcache.ReadReq_miss_rate::total     0.000773                       # miss rate for ReadReq accesses
system.cpu.dcache.ReadReq_avg_miss_latency::.cpu.data 28399.676542                       # average ReadReq miss latency
system.cpu.dcache.ReadReq_avg_miss_latency::total 28399.676542                       # average ReadReq miss latency
system.cpu.dcache.ReadReq_mshr_hits::.cpu.data          364                       # number of ReadReq MSHR hits
system.cpu.dcache.ReadReq_mshr_hits::total          364                       # number of ReadReq MSHR hits
system.cpu.dcache.ReadReq_mshr_misses::.cpu.data        28697                       # number of ReadReq MSHR misses
system.cpu.dcache.ReadReq_mshr_misses::total        28697                       # number of ReadReq MSHR misses
system.cpu.dcache.ReadReq_mshr_miss_latency::.cpu.data    753673000                       # number of ReadReq MSHR miss cycles
system.cpu.dcache.ReadReq_mshr_miss_latency::total    753673000                       # number of ReadReq MSHR miss cycles
system.cpu.dcache.ReadReq_mshr_miss_rate::.cpu.data     0.000763                       # mshr miss rate for ReadReq accesses
system.cpu.dcache.ReadReq_mshr_miss_rate::total     0.000763                       # mshr miss rate for ReadReq accesses
system.cpu.dcache.ReadReq_avg_mshr_miss_latency::.cpu.data 26263.128550                       # average ReadReq mshr miss latency
system.cpu.dcache.ReadReq_avg_mshr_miss_latency::total 26263.128550                       # average ReadReq mshr miss latency
system.cpu.dcache.WriteReq_hits::.cpu.data      6285971                       # number of WriteReq hits
system.cpu.dcache.WriteReq_hits::total        6285971                       # number of WriteReq hits
system.cpu.dcache.WriteReq_misses::.cpu.data        34875                       # number of WriteReq misses
system.cpu.dcache.WriteReq_misses::total        34875                       # number of WriteReq misses
system.cpu.dcache.WriteReq_miss_latency::.cpu.data   1350747000                       # number of WriteReq miss cycles
system.cpu.dcache.WriteReq_miss_latency::total   1350747000                       # number of WriteReq miss cycles
system.cpu.dcache.WriteReq_accesses::.cpu.data      6320846                       # number of WriteReq accesses(hits+misses)
system.cpu.dcache.WriteReq_accesses::total      6320846                       # number of WriteReq accesses(hits+misses)
system.cpu.dcache.WriteReq_miss_rate::.cpu.data     0.005517                       # miss rate for WriteReq accesses
system.cpu.dcache.WriteReq_miss_rate::total     0.005517                       # miss rate for WriteReq accesses
system.cpu.dcache.WriteReq_avg_miss_latency::.cpu.data 38731.096774                       # average WriteReq miss latency
system.cpu.dcache.WriteReq_avg_miss_latency::total 38731.096774                       # average WriteReq miss latency
system.cpu.dcache.WriteReq_mshr_hits::.cpu.data         3564                       # number of WriteReq MSHR hits
system.cpu.dcache.WriteReq_mshr_hits::total         3564                       # number of WriteReq MSHR hits
system.cpu.dcache.WriteReq_mshr_misses::.cpu.data        31311                       # number of WriteReq MSHR misses
system.cpu.dcache.WriteReq_mshr_misses::total        31311                       # number of WriteReq MSHR misses
system.cpu.dcache.WriteReq_mshr_miss_latency::.cpu.data   1044956000                       # number of WriteReq MSHR miss cycles
system.cpu.dcache.WriteReq_mshr_miss_latency::total   1044956000                       # number of WriteReq MSHR miss cycles
system.cpu.dcache.WriteReq_mshr_miss_rate::.cpu.data     0.004954                       # mshr miss rate for WriteReq accesses
system.cpu.dcache.WriteReq_mshr_miss_rate::total     0.004954                       # mshr miss rate for WriteReq accesses
system.cpu.dcache.WriteReq_avg_mshr_miss_latency::.cpu.data 33373.447031                       # average WriteReq mshr miss latency
system.cpu.dcache.WriteReq_avg_mshr_miss_latency::total 33373.447031                       # average WriteReq mshr miss latency
system.cpu.dcache.SoftPFReq_hits::.cpu.data         8606                       # number of SoftPFReq hits
system.cpu.dcache.SoftPFReq_hits::total          8606                       # number of SoftPFReq hits
system.cpu.dcache.SoftPFReq_misses::.cpu.data          109                       # number of SoftPFReq misses
system.cpu.dcache.SoftPFReq_misses::total          109                       # number of SoftPFReq misses
system.cpu.dcache.SoftPFReq_accesses::.cpu.data         8715                       # number of SoftPFReq accesses(hits+misses)
system.cpu.dcache.SoftPFReq_accesses::total         8715                       # number of SoftPFReq accesses(hits+misses)
system.cpu.dcache.SoftPFReq_miss_rate::.cpu.data     0.012507                       # miss rate for SoftPFReq accesses
system.cpu.dcache.SoftPFReq_miss_rate::total     0.012507                       # miss rate for SoftPFReq accesses
system.cpu.dcache.SoftPFReq_mshr_misses::.cpu.data           98                       # number of SoftPFReq MSHR misses
system.cpu.dcache.SoftPFReq_mshr_misses::total           98                       # number of SoftPFReq MSHR misses
system.cpu.dcache.SoftPFReq_mshr_miss_latency::.cpu.data      9427000                       # number of SoftPFReq MSHR miss cycles
system.cpu.dcache.SoftPFReq_mshr_miss_latency::total      9427000                       # number of SoftPFReq MSHR miss cycles
system.cpu.dcache.SoftPFReq_mshr_miss_rate::.cpu.data     0.011245                       # mshr miss rate for SoftPFReq accesses
system.cpu.dcache.SoftPFReq_mshr_miss_rate::total     0.011245                       # mshr miss rate for SoftPFReq accesses
system.cpu.dcache.SoftPFReq_avg_mshr_miss_latency::.cpu.data 96193.877551                       # average SoftPFReq mshr miss latency
system.cpu.dcache.SoftPFReq_avg_mshr_miss_latency::total 96193.877551                       # average SoftPFReq mshr miss latency
system.cpu.dcache.LoadLockedReq_hits::.cpu.data          165                       # number of LoadLockedReq hits
system.cpu.dcache.LoadLockedReq_hits::total          165                       # number of LoadLockedReq hits
system.cpu.dcache.LoadLockedReq_misses::.cpu.data            1                       # number of LoadLockedReq misses
system.cpu.dcache.LoadLockedReq_misses::total            1                       # number of LoadLockedReq misses
system.cpu.dcache.LoadLockedReq_miss_latency::.cpu.data       109000                       # number of LoadLockedReq miss cycles
system.cpu.dcache.LoadLockedReq_miss_latency::total       109000                       # number of LoadLockedReq miss cycles
system.cpu.dcache.LoadLockedReq_accesses::.cpu.data          166                       # number of LoadLockedReq accesses(hits+misses)
system.cpu.dcache.LoadLockedReq_accesses::total          166                       # number of LoadLockedReq accesses(hits+misses)
system.cpu.dcache.LoadLockedReq_miss_rate::.cpu.data     0.006024                       # miss rate for LoadLockedReq accesses
system.cpu.dcache.LoadLockedReq_miss_rate::total     0.006024                       # miss rate for LoadLockedReq accesses
system.cpu.dcache.LoadLockedReq_avg_miss_latency::.cpu.data       109000                       # average LoadLockedReq miss latency
system.cpu.dcache.LoadLockedReq_avg_miss_latency::total       109000                       # average LoadLockedReq miss latency
system.cpu.dcache.LoadLockedReq_mshr_misses::.cpu.data            1                       # number of LoadLockedReq MSHR misses
system.cpu.dcache.LoadLockedReq_mshr_misses::total            1                       # number of LoadLockedReq MSHR misses
system.cpu.dcache.LoadLockedReq_mshr_miss_latency::.cpu.data       107000                       # number of LoadLockedReq MSHR miss cycles
system.cpu.dcache.LoadLockedReq_mshr_miss_latency::total       107000                       # number of LoadLockedReq MSHR miss cycles
system.cpu.dcache.LoadLockedReq_mshr_miss_rate::.cpu.data     0.006024                       # mshr miss rate for LoadLockedReq accesses
system.cpu.dcache.LoadLockedReq_mshr_miss_rate::total     0.006024                       # mshr miss rate for LoadLockedReq accesses
system.cpu.dcache.LoadLockedReq_avg_mshr_miss_latency::.cpu.data       107000                       # average LoadLockedReq mshr miss latency
system.cpu.dcache.LoadLockedReq_avg_mshr_miss_latency::total       107000                       # average LoadLockedReq mshr miss latency
system.cpu.dcache.StoreCondReq_hits::.cpu.data          166                       # number of StoreCondReq hits
system.cpu.dcache.StoreCondReq_hits::total          166                       # number of StoreCondReq hits
system.cpu.dcache.StoreCondReq_accesses::.cpu.data          166                       # number of StoreCondReq accesses(hits+misses)
system.cpu.dcache.StoreCondReq_accesses::total          166                       # number of StoreCondReq accesses(hits+misses)
system.cpu.dcache.tags.pwrStateResidencyTicks::UNDEFINED 118990487000                       # Cumulative time (in ticks) in various power states
system.cpu.dcache.tags.tagsinuse          2006.636571                       # Cycle average of tags in use
system.cpu.dcache.tags.total_refs            43928358                       # Total number of references to valid blocks.
system.cpu.dcache.tags.sampled_refs             60107                       # Sample count of references to valid blocks.
system.cpu.dcache.tags.avg_refs            730.835976                       # Average number of references to valid blocks.
system.cpu.dcache.tags.warmup_cycle            223000                       # Cycle when the warmup percentage was hit.
system.cpu.dcache.tags.occ_blocks::.cpu.data  2006.636571                       # Average occupied blocks per requestor
system.cpu.dcache.tags.occ_percent::.cpu.data     0.979803                       # Average percentage of cache occupancy
system.cpu.dcache.tags.occ_percent::total     0.979803                       # Average percentage of cache occupancy
system.cpu.dcache.tags.occ_task_id_blocks::1024         2048                       # Occupied blocks per task id
system.cpu.dcache.tags.age_task_id_blocks_1024::0            5                       # Occupied blocks per task id
system.cpu.dcache.tags.age_task_id_blocks_1024::1           41                       # Occupied blocks per task id
system.cpu.dcache.tags.age_task_id_blocks_1024::2          199                       # Occupied blocks per task id
system.cpu.dcache.tags.age_task_id_blocks_1024::3          626                       # Occupied blocks per task id
system.cpu.dcache.tags.age_task_id_blocks_1024::4         1177                       # Occupied blocks per task id
system.cpu.dcache.tags.occ_task_id_percent::1024            1                       # Percentage of cache occupancy per task id
system.cpu.dcache.tags.tag_accesses          43992404                       # Number of tag accesses
system.cpu.dcache.tags.data_accesses         43992404                       # Number of data accesses
system.cpu.itb.walker.pwrStateResidencyTicks::UNDEFINED 118990487000                       # Cumulative time (in ticks) in various power states
system.cpu.itb.stage2_mmu.stage2_tlb.walker.pwrStateResidencyTicks::UNDEFINED 118990487000                       # Cumulative time (in ticks) in various power states

---------- End Simulation Statistics   ----------
