
---------- Begin Simulation Statistics ----------
final_tick                               262712753000                       # Number of ticks from beginning of simulation (restored from checkpoints and never reset)
host_inst_rate                                 251332                       # Simulator instruction rate (inst/s)
host_mem_usage                                 710052                       # Number of bytes of host memory used
host_op_rate                                   251342                       # Simulator op (including micro ops) rate (op/s)
host_seconds                                   397.88                       # Real time elapsed on the host
host_tick_rate                              660282146                       # Simulator tick rate (ticks/s)
sim_freq                                 1000000000000                       # Frequency of simulated ticks
sim_insts                                   100000000                       # Number of instructions simulated
sim_ops                                     100003637                       # Number of ops (including micro ops) simulated
sim_seconds                                  0.262713                       # Number of seconds simulated
sim_ticks                                262712753000                       # Number of ticks simulated
system.cpu.branchPred.BTBCorrect                    0                       # Number of correct BTB predictions (this stat may not work properly.
system.cpu.branchPred.BTBHitPct             99.523982                       # BTB Hit Percentage
system.cpu.branchPred.BTBHits                  596912                       # Number of BTB hits
system.cpu.branchPred.BTBLookups               599767                       # Number of BTB lookups
system.cpu.branchPred.RASInCorrect                  7                       # Number of incorrect RAS predictions.
system.cpu.branchPred.condIncorrect               868                       # Number of conditional branches incorrect
system.cpu.branchPred.condPredicted            599881                       # Number of conditional branches predicted
system.cpu.branchPred.indirectHits                164                       # Number of indirect target hits.
system.cpu.branchPred.indirectLookups             374                       # Number of indirect predictor lookups.
system.cpu.branchPred.indirectMisses              210                       # Number of indirect misses.
system.cpu.branchPred.lookups                  602010                       # Number of BP lookups
system.cpu.branchPred.usedRAS                     598                       # Number of times the RAS was used to get a target.
system.cpu.branchPredindirectMispredicted          111                       # Number of mispredicted indirect branches.
system.cpu.committedInsts                   100000000                       # Number of instructions committed
system.cpu.committedOps                     100003637                       # Number of ops (including micro ops) committed
system.cpu.cpi                               2.627128                       # CPI: cycles per instruction
system.cpu.discardedOps                          2681                       # Number of ops (including micro ops) which were discarded before commit
system.cpu.dtb.accesses                             0                       # DTB accesses
system.cpu.dtb.align_faults                         0                       # Number of TLB faults due to alignment restrictions
system.cpu.dtb.domain_faults                        0                       # Number of TLB faults due to domain restrictions
system.cpu.dtb.flush_entries                        0                       # Number of entries that have been flushed from TLB
system.cpu.dtb.flush_tlb                            0                       # Number of times complete TLB was flushed
system.cpu.dtb.flush_tlb_asid                       0                       # Number of times TLB was flushed by ASID
system.cpu.dtb.flush_tlb_mva                        0                       # Number of times TLB was flushed by MVA
system.cpu.dtb.flush_tlb_mva_asid                   0                       # Number of times TLB was flushed by MVA & ASID
system.cpu.dtb.hits                                 0                       # DTB hits
system.cpu.dtb.inst_accesses                        0                       # ITB inst accesses
system.cpu.dtb.inst_hits                            0                       # ITB inst hits
system.cpu.dtb.inst_misses                          0                       # ITB inst misses
system.cpu.dtb.misses                               0                       # DTB misses
system.cpu.dtb.perms_faults                         0                       # Number of TLB faults due to permissions restrictions
system.cpu.dtb.prefetch_faults                      0                       # Number of TLB faults due to prefetch
system.cpu.dtb.read_accesses                        0                       # DTB read accesses
system.cpu.dtb.read_hits                            0                       # DTB read hits
system.cpu.dtb.read_misses                          0                       # DTB read misses
system.cpu.dtb.stage2_mmu.stage2_tlb.accesses            0                       # DTB accesses
system.cpu.dtb.stage2_mmu.stage2_tlb.align_faults            0                       # Number of TLB faults due to alignment restrictions
system.cpu.dtb.stage2_mmu.stage2_tlb.domain_faults            0                       # Number of TLB faults due to domain restrictions
system.cpu.dtb.stage2_mmu.stage2_tlb.flush_entries            0                       # Number of entries that have been flushed from TLB
system.cpu.dtb.stage2_mmu.stage2_tlb.flush_tlb            0                       # Number of times complete TLB was flushed
system.cpu.dtb.stage2_mmu.stage2_tlb.flush_tlb_asid            0                       # Number of times TLB was flushed by ASID
system.cpu.dtb.stage2_mmu.stage2_tlb.flush_tlb_mva            0                       # Number of times TLB was flushed by MVA
system.cpu.dtb.stage2_mmu.stage2_tlb.flush_tlb_mva_asid            0                       # Number of times TLB was flushed by MVA & ASID
system.cpu.dtb.stage2_mmu.stage2_tlb.hits            0                       # DTB hits
system.cpu.dtb.stage2_mmu.stage2_tlb.inst_accesses            0                       # ITB inst accesses
system.cpu.dtb.stage2_mmu.stage2_tlb.inst_hits            0                       # ITB inst hits
system.cpu.dtb.stage2_mmu.stage2_tlb.inst_misses            0                       # ITB inst misses
system.cpu.dtb.stage2_mmu.stage2_tlb.misses            0                       # DTB misses
system.cpu.dtb.stage2_mmu.stage2_tlb.perms_faults            0                       # Number of TLB faults due to permissions restrictions
system.cpu.dtb.stage2_mmu.stage2_tlb.prefetch_faults            0                       # Number of TLB faults due to prefetch
system.cpu.dtb.stage2_mmu.stage2_tlb.read_accesses            0                       # DTB read accesses
system.cpu.dtb.stage2_mmu.stage2_tlb.read_hits            0                       # DTB read hits
system.cpu.dtb.stage2_mmu.stage2_tlb.read_misses            0                       # DTB read misses
system.cpu.dtb.stage2_mmu.stage2_tlb.walker.walkRequestOrigin_Requested::Data            0                       # Table walker requests started/completed, data/inst
system.cpu.dtb.stage2_mmu.stage2_tlb.walker.walkRequestOrigin_Requested::Inst            0                       # Table walker requests started/completed, data/inst
system.cpu.dtb.stage2_mmu.stage2_tlb.walker.walkRequestOrigin_Requested::total            0                       # Table walker requests started/completed, data/inst
system.cpu.dtb.stage2_mmu.stage2_tlb.walker.walkRequestOrigin_Completed::Data            0                       # Table walker requests started/completed, data/inst
system.cpu.dtb.stage2_mmu.stage2_tlb.walker.walkRequestOrigin_Completed::Inst            0                       # Table walker requests started/completed, data/inst
system.cpu.dtb.stage2_mmu.stage2_tlb.walker.walkRequestOrigin_Completed::total            0                       # Table walker requests started/completed, data/inst
system.cpu.dtb.stage2_mmu.stage2_tlb.walker.walkRequestOrigin::total            0                       # Table walker requests started/completed, data/inst
system.cpu.dtb.stage2_mmu.stage2_tlb.walker.walks            0                       # Table walker walks requested
system.cpu.dtb.stage2_mmu.stage2_tlb.write_accesses            0                       # DTB write accesses
system.cpu.dtb.stage2_mmu.stage2_tlb.write_hits            0                       # DTB write hits
system.cpu.dtb.stage2_mmu.stage2_tlb.write_misses            0                       # DTB write misses
system.cpu.dtb.walker.walkRequestOrigin_Requested::Data            0                       # Table walker requests started/completed, data/inst
system.cpu.dtb.walker.walkRequestOrigin_Requested::Inst            0                       # Table walker requests started/completed, data/inst
system.cpu.dtb.walker.walkRequestOrigin_Requested::total            0                       # Table walker requests started/completed, data/inst
system.cpu.dtb.walker.walkRequestOrigin_Completed::Data            0                       # Table walker requests started/completed, data/inst
system.cpu.dtb.walker.walkRequestOrigin_Completed::Inst            0                       # Table walker requests started/completed, data/inst
system.cpu.dtb.walker.walkRequestOrigin_Completed::total            0                       # Table walker requests started/completed, data/inst
system.cpu.dtb.walker.walkRequestOrigin::total            0                       # Table walker requests started/completed, data/inst
system.cpu.dtb.walker.walks                         0                       # Table walker walks requested
system.cpu.dtb.write_accesses                       0                       # DTB write accesses
system.cpu.dtb.write_hits                           0                       # DTB write hits
system.cpu.dtb.write_misses                         0                       # DTB write misses
system.cpu.fetch2.amo_instructions                  0                       # Number of memory atomic instructions successfully decoded
system.cpu.fetch2.fp_instructions                   0                       # Number of floating point instructions successfully decoded
system.cpu.fetch2.int_instructions           49411713                       # Number of integer instructions successfully decoded
system.cpu.fetch2.load_instructions          36901049                       # Number of memory load instructions successfully decoded
system.cpu.fetch2.store_instructions         13094488                       # Number of memory store instructions successfully decoded
system.cpu.fetch2.vec_instructions                  0                       # Number of SIMD instructions successfully decoded
system.cpu.idleCycles                       145436862                       # Total number of cycles that the object has spent stopped
system.cpu.ipc                               0.380644                       # IPC: instructions per cycle
system.cpu.itb.accesses                             0                       # DTB accesses
system.cpu.itb.align_faults                         0                       # Number of TLB faults due to alignment restrictions
system.cpu.itb.domain_faults                        0                       # Number of TLB faults due to domain restrictions
system.cpu.itb.flush_entries                        0                       # Number of entries that have been flushed from TLB
system.cpu.itb.flush_tlb                            0                       # Number of times complete TLB was flushed
system.cpu.itb.flush_tlb_asid                       0                       # Number of times TLB was flushed by ASID
system.cpu.itb.flush_tlb_mva                        0                       # Number of times TLB was flushed by MVA
system.cpu.itb.flush_tlb_mva_asid                   0                       # Number of times TLB was flushed by MVA & ASID
system.cpu.itb.hits                                 0                       # DTB hits
system.cpu.itb.inst_accesses                        0                       # ITB inst accesses
system.cpu.itb.inst_hits                            0                       # ITB inst hits
system.cpu.itb.inst_misses                          0                       # ITB inst misses
system.cpu.itb.misses                               0                       # DTB misses
system.cpu.itb.perms_faults                         0                       # Number of TLB faults due to permissions restrictions
system.cpu.itb.prefetch_faults                      0                       # Number of TLB faults due to prefetch
system.cpu.itb.read_accesses                        0                       # DTB read accesses
system.cpu.itb.read_hits                            0                       # DTB read hits
system.cpu.itb.read_misses                          0                       # DTB read misses
system.cpu.itb.stage2_mmu.stage2_tlb.accesses            0                       # DTB accesses
system.cpu.itb.stage2_mmu.stage2_tlb.align_faults            0                       # Number of TLB faults due to alignment restrictions
system.cpu.itb.stage2_mmu.stage2_tlb.domain_faults            0                       # Number of TLB faults due to domain restrictions
system.cpu.itb.stage2_mmu.stage2_tlb.flush_entries            0                       # Number of entries that have been flushed from TLB
system.cpu.itb.stage2_mmu.stage2_tlb.flush_tlb            0                       # Number of times complete TLB was flushed
system.cpu.itb.stage2_mmu.stage2_tlb.flush_tlb_asid            0                       # Number of times TLB was flushed by ASID
system.cpu.itb.stage2_mmu.stage2_tlb.flush_tlb_mva            0                       # Number of times TLB was flushed by MVA
system.cpu.itb.stage2_mmu.stage2_tlb.flush_tlb_mva_asid            0                       # Number of times TLB was flushed by MVA & ASID
system.cpu.itb.stage2_mmu.stage2_tlb.hits            0                       # DTB hits
system.cpu.itb.stage2_mmu.stage2_tlb.inst_accesses            0                       # ITB inst accesses
system.cpu.itb.stage2_mmu.stage2_tlb.inst_hits            0                       # ITB inst hits
system.cpu.itb.stage2_mmu.stage2_tlb.inst_misses            0                       # ITB inst misses
system.cpu.itb.stage2_mmu.stage2_tlb.misses            0                       # DTB misses
system.cpu.itb.stage2_mmu.stage2_tlb.perms_faults            0                       # Number of TLB faults due to permissions restrictions
system.cpu.itb.stage2_mmu.stage2_tlb.prefetch_faults            0                       # Number of TLB faults due to prefetch
system.cpu.itb.stage2_mmu.stage2_tlb.read_accesses            0                       # DTB read accesses
system.cpu.itb.stage2_mmu.stage2_tlb.read_hits            0                       # DTB read hits
system.cpu.itb.stage2_mmu.stage2_tlb.read_misses            0                       # DTB read misses
system.cpu.itb.stage2_mmu.stage2_tlb.walker.walkRequestOrigin_Requested::Data            0                       # Table walker requests started/completed, data/inst
system.cpu.itb.stage2_mmu.stage2_tlb.walker.walkRequestOrigin_Requested::Inst            0                       # Table walker requests started/completed, data/inst
system.cpu.itb.stage2_mmu.stage2_tlb.walker.walkRequestOrigin_Requested::total            0                       # Table walker requests started/completed, data/inst
system.cpu.itb.stage2_mmu.stage2_tlb.walker.walkRequestOrigin_Completed::Data            0                       # Table walker requests started/completed, data/inst
system.cpu.itb.stage2_mmu.stage2_tlb.walker.walkRequestOrigin_Completed::Inst            0                       # Table walker requests started/completed, data/inst
system.cpu.itb.stage2_mmu.stage2_tlb.walker.walkRequestOrigin_Completed::total            0                       # Table walker requests started/completed, data/inst
system.cpu.itb.stage2_mmu.stage2_tlb.walker.walkRequestOrigin::total            0                       # Table walker requests started/completed, data/inst
system.cpu.itb.stage2_mmu.stage2_tlb.walker.walks            0                       # Table walker walks requested
system.cpu.itb.stage2_mmu.stage2_tlb.write_accesses            0                       # DTB write accesses
system.cpu.itb.stage2_mmu.stage2_tlb.write_hits            0                       # DTB write hits
system.cpu.itb.stage2_mmu.stage2_tlb.write_misses            0                       # DTB write misses
system.cpu.itb.walker.walkRequestOrigin_Requested::Data            0                       # Table walker requests started/completed, data/inst
system.cpu.itb.walker.walkRequestOrigin_Requested::Inst            0                       # Table walker requests started/completed, data/inst
system.cpu.itb.walker.walkRequestOrigin_Requested::total            0                       # Table walker requests started/completed, data/inst
system.cpu.itb.walker.walkRequestOrigin_Completed::Data            0                       # Table walker requests started/completed, data/inst
system.cpu.itb.walker.walkRequestOrigin_Completed::Inst            0                       # Table walker requests started/completed, data/inst
system.cpu.itb.walker.walkRequestOrigin_Completed::total            0                       # Table walker requests started/completed, data/inst
system.cpu.itb.walker.walkRequestOrigin::total            0                       # Table walker requests started/completed, data/inst
system.cpu.itb.walker.walks                         0                       # Table walker walks requested
system.cpu.itb.write_accesses                       0                       # DTB write accesses
system.cpu.itb.write_hits                           0                       # DTB write hits
system.cpu.itb.write_misses                         0                       # DTB write misses
system.cpu.numCycles                        262712753                       # number of cpu cycles simulated
system.cpu.numFetchSuspends                         0                       # Number of times Execute suspended instruction fetching
system.cpu.numWorkItemsCompleted                    0                       # number of work items this cpu completed
system.cpu.numWorkItemsStarted                      0                       # number of work items this cpu started
system.cpu.op_class_0::No_OpClass                   0      0.00%      0.00% # Class of committed instruction
system.cpu.op_class_0::IntAlu                50006957     50.01%     50.01% # Class of committed instruction
system.cpu.op_class_0::IntMult                     85      0.00%     50.01% # Class of committed instruction
system.cpu.op_class_0::IntDiv                       0      0.00%     50.01% # Class of committed instruction
system.cpu.op_class_0::FloatAdd                     0      0.00%     50.01% # Class of committed instruction
system.cpu.op_class_0::FloatCmp                     0      0.00%     50.01% # Class of committed instruction
system.cpu.op_class_0::FloatCvt                     0      0.00%     50.01% # Class of committed instruction
system.cpu.op_class_0::FloatMult                    0      0.00%     50.01% # Class of committed instruction
system.cpu.op_class_0::FloatMultAcc                 0      0.00%     50.01% # Class of committed instruction
system.cpu.op_class_0::FloatDiv                     0      0.00%     50.01% # Class of committed instruction
system.cpu.op_class_0::FloatMisc                    0      0.00%     50.01% # Class of committed instruction
system.cpu.op_class_0::FloatSqrt                    0      0.00%     50.01% # Class of committed instruction
system.cpu.op_class_0::SimdAdd                      0      0.00%     50.01% # Class of committed instruction
system.cpu.op_class_0::SimdAddAcc                   0      0.00%     50.01% # Class of committed instruction
system.cpu.op_class_0::SimdAlu                      0      0.00%     50.01% # Class of committed instruction
system.cpu.op_class_0::SimdCmp                      0      0.00%     50.01% # Class of committed instruction
system.cpu.op_class_0::SimdCvt                      0      0.00%     50.01% # Class of committed instruction
system.cpu.op_class_0::SimdMisc                     0      0.00%     50.01% # Class of committed instruction
system.cpu.op_class_0::SimdMult                     0      0.00%     50.01% # Class of committed instruction
system.cpu.op_class_0::SimdMultAcc                  0      0.00%     50.01% # Class of committed instruction
system.cpu.op_class_0::SimdShift                    0      0.00%     50.01% # Class of committed instruction
system.cpu.op_class_0::SimdShiftAcc                 0      0.00%     50.01% # Class of committed instruction
system.cpu.op_class_0::SimdDiv                      0      0.00%     50.01% # Class of committed instruction
system.cpu.op_class_0::SimdSqrt                     0      0.00%     50.01% # Class of committed instruction
system.cpu.op_class_0::SimdFloatAdd                 0      0.00%     50.01% # Class of committed instruction
system.cpu.op_class_0::SimdFloatAlu                 0      0.00%     50.01% # Class of committed instruction
system.cpu.op_class_0::SimdFloatCmp                 2      0.00%     50.01% # Class of committed instruction
system.cpu.op_class_0::SimdFloatCvt                 0      0.00%     50.01% # Class of committed instruction
system.cpu.op_class_0::SimdFloatDiv                 0      0.00%     50.01% # Class of committed instruction
system.cpu.op_class_0::SimdFloatMisc               22      0.00%     50.01% # Class of committed instruction
system.cpu.op_class_0::SimdFloatMult                0      0.00%     50.01% # Class of committed instruction
system.cpu.op_class_0::SimdFloatMultAcc             0      0.00%     50.01% # Class of committed instruction
system.cpu.op_class_0::SimdFloatSqrt                0      0.00%     50.01% # Class of committed instruction
system.cpu.op_class_0::SimdReduceAdd                0      0.00%     50.01% # Class of committed instruction
system.cpu.op_class_0::SimdReduceAlu                0      0.00%     50.01% # Class of committed instruction
system.cpu.op_class_0::SimdReduceCmp                0      0.00%     50.01% # Class of committed instruction
system.cpu.op_class_0::SimdFloatReduceAdd            0      0.00%     50.01% # Class of committed instruction
system.cpu.op_class_0::SimdFloatReduceCmp            0      0.00%     50.01% # Class of committed instruction
system.cpu.op_class_0::SimdAes                      0      0.00%     50.01% # Class of committed instruction
system.cpu.op_class_0::SimdAesMix                   0      0.00%     50.01% # Class of committed instruction
system.cpu.op_class_0::SimdSha1Hash                 0      0.00%     50.01% # Class of committed instruction
system.cpu.op_class_0::SimdSha1Hash2                0      0.00%     50.01% # Class of committed instruction
system.cpu.op_class_0::SimdSha256Hash               0      0.00%     50.01% # Class of committed instruction
system.cpu.op_class_0::SimdSha256Hash2              0      0.00%     50.01% # Class of committed instruction
system.cpu.op_class_0::SimdShaSigma2                0      0.00%     50.01% # Class of committed instruction
system.cpu.op_class_0::SimdShaSigma3                0      0.00%     50.01% # Class of committed instruction
system.cpu.op_class_0::SimdPredAlu                  0      0.00%     50.01% # Class of committed instruction
system.cpu.op_class_0::MemRead               36900878     36.90%     86.90% # Class of committed instruction
system.cpu.op_class_0::MemWrite              13095693     13.10%    100.00% # Class of committed instruction
system.cpu.op_class_0::FloatMemRead                 0      0.00%    100.00% # Class of committed instruction
system.cpu.op_class_0::FloatMemWrite                0      0.00%    100.00% # Class of committed instruction
system.cpu.op_class_0::IprAccess                    0      0.00%    100.00% # Class of committed instruction
system.cpu.op_class_0::InstPrefetch                 0      0.00%    100.00% # Class of committed instruction
system.cpu.op_class_0::total                100003637                       # Class of committed instruction
system.cpu.tickCycles                       117275891                       # Number of cycles that the object actually ticked
system.cpu.workload.numSyscalls                    18                       # Number of system calls
system.membus.snoop_filter.hit_multi_requests            0                       # Number of requests hitting in the snoop filter with multiple (>1) holders of the requested data.
system.membus.snoop_filter.hit_multi_snoops            0                       # Number of snoops hitting in the snoop filter with multiple (>1) holders of the requested data.
system.membus.snoop_filter.hit_single_requests      1422523                       # Number of requests hitting in the snoop filter with a single holder of the requested data.
system.membus.snoop_filter.hit_single_snoops            0                       # Number of snoops hitting in the snoop filter with a single holder of the requested data.
system.membus.snoop_filter.tot_requests       2910974                       # Total number of requests made to the snoop filter.
system.membus.snoop_filter.tot_snoops               0                       # Total number of snoops made to the snoop filter.
system.tol2bus.snoop_filter.hit_multi_requests          753                       # Number of requests hitting in the snoop filter with multiple (>1) holders of the requested data.
system.tol2bus.snoop_filter.hit_multi_snoops          110                       # Number of snoops hitting in the snoop filter with multiple (>1) holders of the requested data.
system.tol2bus.snoop_filter.hit_single_requests      1482321                       # Number of requests hitting in the snoop filter with a single holder of the requested data.
system.tol2bus.snoop_filter.hit_single_snoops          790                       # Number of snoops hitting in the snoop filter with a single holder of the requested data.
system.tol2bus.snoop_filter.tot_requests      2973336                       # Total number of requests made to the snoop filter.
system.tol2bus.snoop_filter.tot_snoops            900                       # Total number of snoops made to the snoop filter.
system.membus.pwrStateResidencyTicks::UNDEFINED 262712753000                       # Cumulative time (in ticks) in various power states
system.membus.trans_dist::ReadResp                710                       # Transaction distribution
system.membus.trans_dist::WritebackDirty      1422334                       # Transaction distribution
system.membus.trans_dist::CleanEvict               79                       # Transaction distribution
system.membus.trans_dist::ReadExReq           1487851                       # Transaction distribution
system.membus.trans_dist::ReadExResp          1487851                       # Transaction distribution
system.membus.trans_dist::ReadSharedReq           710                       # Transaction distribution
system.membus.pkt_count_system.l2.mem_side::system.mem_ctrls.port      4399535                       # Packet count per connected master and slave (bytes)
system.membus.pkt_count::total                4399535                       # Packet count per connected master and slave (bytes)
system.membus.pkt_size_system.l2.mem_side::system.mem_ctrls.port    186297280                       # Cumulative packet size per connected master and slave (bytes)
system.membus.pkt_size::total               186297280                       # Cumulative packet size per connected master and slave (bytes)
system.membus.snoops                                0                       # Total snoops (count)
system.membus.snoopTraffic                          0                       # Total snoop traffic (bytes)
system.membus.snoop_fanout::samples           1488561                       # Request fanout histogram
system.membus.snoop_fanout::mean                    0                       # Request fanout histogram
system.membus.snoop_fanout::stdev                   0                       # Request fanout histogram
system.membus.snoop_fanout::underflows              0      0.00%      0.00% # Request fanout histogram
system.membus.snoop_fanout::0                 1488561    100.00%    100.00% # Request fanout histogram
system.membus.snoop_fanout::1                       0      0.00%    100.00% # Request fanout histogram
system.membus.snoop_fanout::overflows               0      0.00%    100.00% # Request fanout histogram
system.membus.snoop_fanout::min_value               0                       # Request fanout histogram
system.membus.snoop_fanout::max_value               0                       # Request fanout histogram
system.membus.snoop_fanout::total             1488561                       # Request fanout histogram
system.membus.respLayer1.occupancy         7835504250                       # Layer occupancy (ticks)
system.membus.respLayer1.utilization              3.0                       # Layer utilization (%)
system.membus.reqLayer0.occupancy          8600310000                       # Layer occupancy (ticks)
system.membus.reqLayer0.utilization               3.3                       # Layer utilization (%)
system.tol2bus.pwrStateResidencyTicks::UNDEFINED 262712753000                       # Cumulative time (in ticks) in various power states
system.tol2bus.trans_dist::ReadResp              2078                       # Transaction distribution
system.tol2bus.trans_dist::WritebackDirty      2903822                       # Transaction distribution
system.tol2bus.trans_dist::CleanEvict            1811                       # Transaction distribution
system.tol2bus.trans_dist::ReadExReq          1488938                       # Transaction distribution
system.tol2bus.trans_dist::ReadExResp         1488937                       # Transaction distribution
system.tol2bus.trans_dist::ReadCleanReq           503                       # Transaction distribution
system.tol2bus.trans_dist::ReadSharedReq         1575                       # Transaction distribution
system.tol2bus.pkt_count_system.cpu.icache.mem_side::system.l2.cpu_side         1006                       # Packet count per connected master and slave (bytes)
system.tol2bus.pkt_count_system.cpu.dcache.mem_side::system.l2.cpu_side      4463345                       # Packet count per connected master and slave (bytes)
system.tol2bus.pkt_count::total               4464351                       # Packet count per connected master and slave (bytes)
system.tol2bus.pkt_size_system.cpu.icache.mem_side::system.l2.cpu_side        32192                       # Cumulative packet size per connected master and slave (bytes)
system.tol2bus.pkt_size_system.cpu.dcache.mem_side::system.l2.cpu_side    190208000                       # Cumulative packet size per connected master and slave (bytes)
system.tol2bus.pkt_size::total              190240192                       # Cumulative packet size per connected master and slave (bytes)
system.tol2bus.snoops                         1423313                       # Total snoops (count)
system.tol2bus.snoopTraffic                  91029376                       # Total snoop traffic (bytes)
system.tol2bus.snoop_fanout::samples          2914329                       # Request fanout histogram
system.tol2bus.snoop_fanout::mean            0.000605                       # Request fanout histogram
system.tol2bus.snoop_fanout::stdev           0.026085                       # Request fanout histogram
system.tol2bus.snoop_fanout::underflows             0      0.00%      0.00% # Request fanout histogram
system.tol2bus.snoop_fanout::0                2912675     99.94%     99.94% # Request fanout histogram
system.tol2bus.snoop_fanout::1                   1544      0.05%    100.00% # Request fanout histogram
system.tol2bus.snoop_fanout::2                    110      0.00%    100.00% # Request fanout histogram
system.tol2bus.snoop_fanout::overflows              0      0.00%    100.00% # Request fanout histogram
system.tol2bus.snoop_fanout::min_value              0                       # Request fanout histogram
system.tol2bus.snoop_fanout::max_value              2                       # Request fanout histogram
system.tol2bus.snoop_fanout::total            2914329                       # Request fanout histogram
system.tol2bus.reqLayer0.occupancy         5936312000                       # Layer occupancy (ticks)
system.tol2bus.reqLayer0.utilization              2.3                       # Layer utilization (%)
system.tol2bus.respLayer1.occupancy        4471538997                       # Layer occupancy (ticks)
system.tol2bus.respLayer1.utilization             1.7                       # Layer utilization (%)
system.tol2bus.respLayer0.occupancy           1509000                       # Layer occupancy (ticks)
system.tol2bus.respLayer0.utilization             0.0                       # Layer utilization (%)
system.voltage_domain.voltage                       1                       # Voltage in Volts
system.clk_domain.clock                          1000                       # Clock period in ticks
system.l2.pwrStateResidencyTicks::UNDEFINED 262712753000                       # Cumulative time (in ticks) in various power states
system.l2.demand_hits::.cpu.inst                   13                       # number of demand (read+write) hits
system.l2.demand_hits::.cpu.data                 2438                       # number of demand (read+write) hits
system.l2.demand_hits::total                     2451                       # number of demand (read+write) hits
system.l2.overall_hits::.cpu.inst                  13                       # number of overall hits
system.l2.overall_hits::.cpu.data                2438                       # number of overall hits
system.l2.overall_hits::total                    2451                       # number of overall hits
system.l2.demand_misses::.cpu.inst                490                       # number of demand (read+write) misses
system.l2.demand_misses::.cpu.data            1488075                       # number of demand (read+write) misses
system.l2.demand_misses::total                1488565                       # number of demand (read+write) misses
system.l2.overall_misses::.cpu.inst               490                       # number of overall misses
system.l2.overall_misses::.cpu.data           1488075                       # number of overall misses
system.l2.overall_misses::total               1488565                       # number of overall misses
system.l2.demand_miss_latency::.cpu.inst     47868000                       # number of demand (read+write) miss cycles
system.l2.demand_miss_latency::.cpu.data 150952333000                       # number of demand (read+write) miss cycles
system.l2.demand_miss_latency::total     151000201000                       # number of demand (read+write) miss cycles
system.l2.overall_miss_latency::.cpu.inst     47868000                       # number of overall miss cycles
system.l2.overall_miss_latency::.cpu.data 150952333000                       # number of overall miss cycles
system.l2.overall_miss_latency::total    151000201000                       # number of overall miss cycles
system.l2.demand_accesses::.cpu.inst              503                       # number of demand (read+write) accesses
system.l2.demand_accesses::.cpu.data          1490513                       # number of demand (read+write) accesses
system.l2.demand_accesses::total              1491016                       # number of demand (read+write) accesses
system.l2.overall_accesses::.cpu.inst             503                       # number of overall (read+write) accesses
system.l2.overall_accesses::.cpu.data         1490513                       # number of overall (read+write) accesses
system.l2.overall_accesses::total             1491016                       # number of overall (read+write) accesses
system.l2.demand_miss_rate::.cpu.inst        0.974155                       # miss rate for demand accesses
system.l2.demand_miss_rate::.cpu.data        0.998364                       # miss rate for demand accesses
system.l2.demand_miss_rate::total            0.998356                       # miss rate for demand accesses
system.l2.overall_miss_rate::.cpu.inst       0.974155                       # miss rate for overall accesses
system.l2.overall_miss_rate::.cpu.data       0.998364                       # miss rate for overall accesses
system.l2.overall_miss_rate::total           0.998356                       # miss rate for overall accesses
system.l2.demand_avg_miss_latency::.cpu.inst 97689.795918                       # average overall miss latency
system.l2.demand_avg_miss_latency::.cpu.data 101441.347378                       # average overall miss latency
system.l2.demand_avg_miss_latency::total 101440.112457                       # average overall miss latency
system.l2.overall_avg_miss_latency::.cpu.inst 97689.795918                       # average overall miss latency
system.l2.overall_avg_miss_latency::.cpu.data 101441.347378                       # average overall miss latency
system.l2.overall_avg_miss_latency::total 101440.112457                       # average overall miss latency
system.l2.blocked_cycles::no_mshrs                  0                       # number of cycles access was blocked
system.l2.blocked_cycles::no_targets                0                       # number of cycles access was blocked
system.l2.blocked::no_mshrs                         0                       # number of cycles access was blocked
system.l2.blocked::no_targets                       0                       # number of cycles access was blocked
system.l2.avg_blocked_cycles::no_mshrs            nan                       # average number of cycles each access was blocked
system.l2.avg_blocked_cycles::no_targets          nan                       # average number of cycles each access was blocked
system.l2.writebacks::.writebacks             1422334                       # number of writebacks
system.l2.writebacks::total                   1422334                       # number of writebacks
system.l2.demand_mshr_hits::.cpu.data               3                       # number of demand (read+write) MSHR hits
system.l2.demand_mshr_hits::total                   3                       # number of demand (read+write) MSHR hits
system.l2.overall_mshr_hits::.cpu.data              3                       # number of overall MSHR hits
system.l2.overall_mshr_hits::total                  3                       # number of overall MSHR hits
system.l2.demand_mshr_misses::.cpu.inst           490                       # number of demand (read+write) MSHR misses
system.l2.demand_mshr_misses::.cpu.data       1488072                       # number of demand (read+write) MSHR misses
system.l2.demand_mshr_misses::total           1488562                       # number of demand (read+write) MSHR misses
system.l2.overall_mshr_misses::.cpu.inst          490                       # number of overall MSHR misses
system.l2.overall_mshr_misses::.cpu.data      1488072                       # number of overall MSHR misses
system.l2.overall_mshr_misses::total          1488562                       # number of overall MSHR misses
system.l2.demand_mshr_miss_latency::.cpu.inst     38068000                       # number of demand (read+write) MSHR miss cycles
system.l2.demand_mshr_miss_latency::.cpu.data 121190657000                       # number of demand (read+write) MSHR miss cycles
system.l2.demand_mshr_miss_latency::total 121228725000                       # number of demand (read+write) MSHR miss cycles
system.l2.overall_mshr_miss_latency::.cpu.inst     38068000                       # number of overall MSHR miss cycles
system.l2.overall_mshr_miss_latency::.cpu.data 121190657000                       # number of overall MSHR miss cycles
system.l2.overall_mshr_miss_latency::total 121228725000                       # number of overall MSHR miss cycles
system.l2.demand_mshr_miss_rate::.cpu.inst     0.974155                       # mshr miss rate for demand accesses
system.l2.demand_mshr_miss_rate::.cpu.data     0.998362                       # mshr miss rate for demand accesses
system.l2.demand_mshr_miss_rate::total       0.998354                       # mshr miss rate for demand accesses
system.l2.overall_mshr_miss_rate::.cpu.inst     0.974155                       # mshr miss rate for overall accesses
system.l2.overall_mshr_miss_rate::.cpu.data     0.998362                       # mshr miss rate for overall accesses
system.l2.overall_mshr_miss_rate::total      0.998354                       # mshr miss rate for overall accesses
system.l2.demand_avg_mshr_miss_latency::.cpu.inst 77689.795918                       # average overall mshr miss latency
system.l2.demand_avg_mshr_miss_latency::.cpu.data 81441.393293                       # average overall mshr miss latency
system.l2.demand_avg_mshr_miss_latency::total 81440.158354                       # average overall mshr miss latency
system.l2.overall_avg_mshr_miss_latency::.cpu.inst 77689.795918                       # average overall mshr miss latency
system.l2.overall_avg_mshr_miss_latency::.cpu.data 81441.393293                       # average overall mshr miss latency
system.l2.overall_avg_mshr_miss_latency::total 81440.158354                       # average overall mshr miss latency
system.l2.replacements                        1423313                       # number of replacements
system.l2.WritebackDirty_hits::.writebacks      1481488                       # number of WritebackDirty hits
system.l2.WritebackDirty_hits::total          1481488                       # number of WritebackDirty hits
system.l2.WritebackDirty_accesses::.writebacks      1481488                       # number of WritebackDirty accesses(hits+misses)
system.l2.WritebackDirty_accesses::total      1481488                       # number of WritebackDirty accesses(hits+misses)
system.l2.ReadExReq_hits::.cpu.data              1086                       # number of ReadExReq hits
system.l2.ReadExReq_hits::total                  1086                       # number of ReadExReq hits
system.l2.ReadExReq_misses::.cpu.data         1487852                       # number of ReadExReq misses
system.l2.ReadExReq_misses::total             1487852                       # number of ReadExReq misses
system.l2.ReadExReq_miss_latency::.cpu.data 150928313000                       # number of ReadExReq miss cycles
system.l2.ReadExReq_miss_latency::total  150928313000                       # number of ReadExReq miss cycles
system.l2.ReadExReq_accesses::.cpu.data       1488938                       # number of ReadExReq accesses(hits+misses)
system.l2.ReadExReq_accesses::total           1488938                       # number of ReadExReq accesses(hits+misses)
system.l2.ReadExReq_miss_rate::.cpu.data     0.999271                       # miss rate for ReadExReq accesses
system.l2.ReadExReq_miss_rate::total         0.999271                       # miss rate for ReadExReq accesses
system.l2.ReadExReq_avg_miss_latency::.cpu.data 101440.407379                       # average ReadExReq miss latency
system.l2.ReadExReq_avg_miss_latency::total 101440.407379                       # average ReadExReq miss latency
system.l2.ReadExReq_mshr_misses::.cpu.data      1487852                       # number of ReadExReq MSHR misses
system.l2.ReadExReq_mshr_misses::total        1487852                       # number of ReadExReq MSHR misses
system.l2.ReadExReq_mshr_miss_latency::.cpu.data 121171293000                       # number of ReadExReq MSHR miss cycles
system.l2.ReadExReq_mshr_miss_latency::total 121171293000                       # number of ReadExReq MSHR miss cycles
system.l2.ReadExReq_mshr_miss_rate::.cpu.data     0.999271                       # mshr miss rate for ReadExReq accesses
system.l2.ReadExReq_mshr_miss_rate::total     0.999271                       # mshr miss rate for ReadExReq accesses
system.l2.ReadExReq_avg_mshr_miss_latency::.cpu.data 81440.420821                       # average ReadExReq mshr miss latency
system.l2.ReadExReq_avg_mshr_miss_latency::total 81440.420821                       # average ReadExReq mshr miss latency
system.l2.ReadCleanReq_hits::.cpu.inst             13                       # number of ReadCleanReq hits
system.l2.ReadCleanReq_hits::total                 13                       # number of ReadCleanReq hits
system.l2.ReadCleanReq_misses::.cpu.inst          490                       # number of ReadCleanReq misses
system.l2.ReadCleanReq_misses::total              490                       # number of ReadCleanReq misses
system.l2.ReadCleanReq_miss_latency::.cpu.inst     47868000                       # number of ReadCleanReq miss cycles
system.l2.ReadCleanReq_miss_latency::total     47868000                       # number of ReadCleanReq miss cycles
system.l2.ReadCleanReq_accesses::.cpu.inst          503                       # number of ReadCleanReq accesses(hits+misses)
system.l2.ReadCleanReq_accesses::total            503                       # number of ReadCleanReq accesses(hits+misses)
system.l2.ReadCleanReq_miss_rate::.cpu.inst     0.974155                       # miss rate for ReadCleanReq accesses
system.l2.ReadCleanReq_miss_rate::total      0.974155                       # miss rate for ReadCleanReq accesses
system.l2.ReadCleanReq_avg_miss_latency::.cpu.inst 97689.795918                       # average ReadCleanReq miss latency
system.l2.ReadCleanReq_avg_miss_latency::total 97689.795918                       # average ReadCleanReq miss latency
system.l2.ReadCleanReq_mshr_misses::.cpu.inst          490                       # number of ReadCleanReq MSHR misses
system.l2.ReadCleanReq_mshr_misses::total          490                       # number of ReadCleanReq MSHR misses
system.l2.ReadCleanReq_mshr_miss_latency::.cpu.inst     38068000                       # number of ReadCleanReq MSHR miss cycles
system.l2.ReadCleanReq_mshr_miss_latency::total     38068000                       # number of ReadCleanReq MSHR miss cycles
system.l2.ReadCleanReq_mshr_miss_rate::.cpu.inst     0.974155                       # mshr miss rate for ReadCleanReq accesses
system.l2.ReadCleanReq_mshr_miss_rate::total     0.974155                       # mshr miss rate for ReadCleanReq accesses
system.l2.ReadCleanReq_avg_mshr_miss_latency::.cpu.inst 77689.795918                       # average ReadCleanReq mshr miss latency
system.l2.ReadCleanReq_avg_mshr_miss_latency::total 77689.795918                       # average ReadCleanReq mshr miss latency
system.l2.ReadSharedReq_hits::.cpu.data          1352                       # number of ReadSharedReq hits
system.l2.ReadSharedReq_hits::total              1352                       # number of ReadSharedReq hits
system.l2.ReadSharedReq_misses::.cpu.data          223                       # number of ReadSharedReq misses
system.l2.ReadSharedReq_misses::total             223                       # number of ReadSharedReq misses
system.l2.ReadSharedReq_miss_latency::.cpu.data     24020000                       # number of ReadSharedReq miss cycles
system.l2.ReadSharedReq_miss_latency::total     24020000                       # number of ReadSharedReq miss cycles
system.l2.ReadSharedReq_accesses::.cpu.data         1575                       # number of ReadSharedReq accesses(hits+misses)
system.l2.ReadSharedReq_accesses::total          1575                       # number of ReadSharedReq accesses(hits+misses)
system.l2.ReadSharedReq_miss_rate::.cpu.data     0.141587                       # miss rate for ReadSharedReq accesses
system.l2.ReadSharedReq_miss_rate::total     0.141587                       # miss rate for ReadSharedReq accesses
system.l2.ReadSharedReq_avg_miss_latency::.cpu.data 107713.004484                       # average ReadSharedReq miss latency
system.l2.ReadSharedReq_avg_miss_latency::total 107713.004484                       # average ReadSharedReq miss latency
system.l2.ReadSharedReq_mshr_hits::.cpu.data            3                       # number of ReadSharedReq MSHR hits
system.l2.ReadSharedReq_mshr_hits::total            3                       # number of ReadSharedReq MSHR hits
system.l2.ReadSharedReq_mshr_misses::.cpu.data          220                       # number of ReadSharedReq MSHR misses
system.l2.ReadSharedReq_mshr_misses::total          220                       # number of ReadSharedReq MSHR misses
system.l2.ReadSharedReq_mshr_miss_latency::.cpu.data     19364000                       # number of ReadSharedReq MSHR miss cycles
system.l2.ReadSharedReq_mshr_miss_latency::total     19364000                       # number of ReadSharedReq MSHR miss cycles
system.l2.ReadSharedReq_mshr_miss_rate::.cpu.data     0.139683                       # mshr miss rate for ReadSharedReq accesses
system.l2.ReadSharedReq_mshr_miss_rate::total     0.139683                       # mshr miss rate for ReadSharedReq accesses
system.l2.ReadSharedReq_avg_mshr_miss_latency::.cpu.data 88018.181818                       # average ReadSharedReq mshr miss latency
system.l2.ReadSharedReq_avg_mshr_miss_latency::total 88018.181818                       # average ReadSharedReq mshr miss latency
system.l2.tags.pwrStateResidencyTicks::UNDEFINED 262712753000                       # Cumulative time (in ticks) in various power states
system.l2.tags.tagsinuse                 64156.017723                       # Cycle average of tags in use
system.l2.tags.total_refs                     2972579                       # Total number of references to valid blocks.
system.l2.tags.sampled_refs                   1488849                       # Sample count of references to valid blocks.
system.l2.tags.avg_refs                      1.996562                       # Average number of references to valid blocks.
system.l2.tags.warmup_cycle                     87000                       # Cycle when the warmup percentage was hit.
system.l2.tags.occ_blocks::.writebacks       1.122496                       # Average occupied blocks per requestor
system.l2.tags.occ_blocks::.cpu.inst        18.673444                       # Average occupied blocks per requestor
system.l2.tags.occ_blocks::.cpu.data     64136.221783                       # Average occupied blocks per requestor
system.l2.tags.occ_percent::.writebacks      0.000017                       # Average percentage of cache occupancy
system.l2.tags.occ_percent::.cpu.inst        0.000285                       # Average percentage of cache occupancy
system.l2.tags.occ_percent::.cpu.data        0.978641                       # Average percentage of cache occupancy
system.l2.tags.occ_percent::total            0.978943                       # Average percentage of cache occupancy
system.l2.tags.occ_task_id_blocks::1024         65536                       # Occupied blocks per task id
system.l2.tags.age_task_id_blocks_1024::0           57                       # Occupied blocks per task id
system.l2.tags.age_task_id_blocks_1024::1          510                       # Occupied blocks per task id
system.l2.tags.age_task_id_blocks_1024::2         5090                       # Occupied blocks per task id
system.l2.tags.age_task_id_blocks_1024::3        50875                       # Occupied blocks per task id
system.l2.tags.age_task_id_blocks_1024::4         9004                       # Occupied blocks per task id
system.l2.tags.occ_task_id_percent::1024            1                       # Percentage of cache occupancy per task id
system.l2.tags.tag_accesses                   4461432                       # Number of tag accesses
system.l2.tags.data_accesses                  4461432                       # Number of data accesses
system.cpu_voltage_domain.voltage                   1                       # Voltage in Volts
system.mem_ctrls.pwrStateResidencyTicks::UNDEFINED 262712753000                       # Cumulative time (in ticks) in various power states
system.mem_ctrls.bytes_read::.cpu.inst          31360                       # Number of bytes read from this memory
system.mem_ctrls.bytes_read::.cpu.data       95236544                       # Number of bytes read from this memory
system.mem_ctrls.bytes_read::total           95267904                       # Number of bytes read from this memory
system.mem_ctrls.bytes_inst_read::.cpu.inst        31360                       # Number of instructions bytes read from this memory
system.mem_ctrls.bytes_inst_read::total         31360                       # Number of instructions bytes read from this memory
system.mem_ctrls.bytes_written::.writebacks     91029376                       # Number of bytes written to this memory
system.mem_ctrls.bytes_written::total        91029376                       # Number of bytes written to this memory
system.mem_ctrls.num_reads::.cpu.inst             490                       # Number of read requests responded to by this memory
system.mem_ctrls.num_reads::.cpu.data         1488071                       # Number of read requests responded to by this memory
system.mem_ctrls.num_reads::total             1488561                       # Number of read requests responded to by this memory
system.mem_ctrls.num_writes::.writebacks      1422334                       # Number of write requests responded to by this memory
system.mem_ctrls.num_writes::total            1422334                       # Number of write requests responded to by this memory
system.mem_ctrls.bw_read::.cpu.inst            119370                       # Total read bandwidth from this memory (bytes/s)
system.mem_ctrls.bw_read::.cpu.data         362512070                       # Total read bandwidth from this memory (bytes/s)
system.mem_ctrls.bw_read::total             362631440                       # Total read bandwidth from this memory (bytes/s)
system.mem_ctrls.bw_inst_read::.cpu.inst       119370                       # Instruction read bandwidth from this memory (bytes/s)
system.mem_ctrls.bw_inst_read::total           119370                       # Instruction read bandwidth from this memory (bytes/s)
system.mem_ctrls.bw_write::.writebacks      346497743                       # Write bandwidth from this memory (bytes/s)
system.mem_ctrls.bw_write::total            346497743                       # Write bandwidth from this memory (bytes/s)
system.mem_ctrls.bw_total::.writebacks      346497743                       # Total bandwidth to/from this memory (bytes/s)
system.mem_ctrls.bw_total::.cpu.inst           119370                       # Total bandwidth to/from this memory (bytes/s)
system.mem_ctrls.bw_total::.cpu.data        362512070                       # Total bandwidth to/from this memory (bytes/s)
system.mem_ctrls.bw_total::total            709129183                       # Total bandwidth to/from this memory (bytes/s)
system.mem_ctrls.avgPriority_.writebacks::samples   1422334.00                       # Average QoS priority value for accepted requests
system.mem_ctrls.avgPriority_.cpu.inst::samples       490.00                       # Average QoS priority value for accepted requests
system.mem_ctrls.avgPriority_.cpu.data::samples   1488071.00                       # Average QoS priority value for accepted requests
system.mem_ctrls.priorityMinLatency      0.000000018750                       # per QoS priority minimum request to response latency (s)
system.mem_ctrls.priorityMaxLatency      0.015992572500                       # per QoS priority maximum request to response latency (s)
system.mem_ctrls.numReadWriteTurnArounds        79089                       # Number of turnarounds from READ to WRITE
system.mem_ctrls.numWriteReadTurnArounds        79089                       # Number of turnarounds from WRITE to READ
system.mem_ctrls.numStayReadState             4403768                       # Number of times bus staying in READ state
system.mem_ctrls.numStayWriteState            1347034                       # Number of times bus staying in WRITE state
system.mem_ctrls.readReqs                     1488561                       # Number of read requests accepted
system.mem_ctrls.writeReqs                    1422334                       # Number of write requests accepted
system.mem_ctrls.readBursts                   1488561                       # Number of DRAM read bursts, including those serviced by the write queue
system.mem_ctrls.writeBursts                  1422334                       # Number of DRAM write bursts, including those merged in the write queue
system.mem_ctrls.servicedByWrQ                      0                       # Number of DRAM read bursts serviced by the write queue
system.mem_ctrls.mergedWrBursts                     0                       # Number of DRAM write bursts merged with an existing one
system.mem_ctrls.neitherReadNorWriteReqs            0                       # Number of requests that are neither read nor write
system.mem_ctrls.perBankRdBursts::0             93174                       # Per bank write bursts
system.mem_ctrls.perBankRdBursts::1             92958                       # Per bank write bursts
system.mem_ctrls.perBankRdBursts::2             92992                       # Per bank write bursts
system.mem_ctrls.perBankRdBursts::3             93001                       # Per bank write bursts
system.mem_ctrls.perBankRdBursts::4             93101                       # Per bank write bursts
system.mem_ctrls.perBankRdBursts::5             93074                       # Per bank write bursts
system.mem_ctrls.perBankRdBursts::6             93061                       # Per bank write bursts
system.mem_ctrls.perBankRdBursts::7             93078                       # Per bank write bursts
system.mem_ctrls.perBankRdBursts::8             93155                       # Per bank write bursts
system.mem_ctrls.perBankRdBursts::9             93072                       # Per bank write bursts
system.mem_ctrls.perBankRdBursts::10            93050                       # Per bank write bursts
system.mem_ctrls.perBankRdBursts::11            92953                       # Per bank write bursts
system.mem_ctrls.perBankRdBursts::12            93000                       # Per bank write bursts
system.mem_ctrls.perBankRdBursts::13            92951                       # Per bank write bursts
system.mem_ctrls.perBankRdBursts::14            92954                       # Per bank write bursts
system.mem_ctrls.perBankRdBursts::15            92987                       # Per bank write bursts
system.mem_ctrls.perBankWrBursts::0             88877                       # Per bank write bursts
system.mem_ctrls.perBankWrBursts::1             88857                       # Per bank write bursts
system.mem_ctrls.perBankWrBursts::2             88847                       # Per bank write bursts
system.mem_ctrls.perBankWrBursts::3             88901                       # Per bank write bursts
system.mem_ctrls.perBankWrBursts::4             88961                       # Per bank write bursts
system.mem_ctrls.perBankWrBursts::5             88960                       # Per bank write bursts
system.mem_ctrls.perBankWrBursts::6             88960                       # Per bank write bursts
system.mem_ctrls.perBankWrBursts::7             88960                       # Per bank write bursts
system.mem_ctrls.perBankWrBursts::8             88960                       # Per bank write bursts
system.mem_ctrls.perBankWrBursts::9             88960                       # Per bank write bursts
system.mem_ctrls.perBankWrBursts::10            88902                       # Per bank write bursts
system.mem_ctrls.perBankWrBursts::11            88832                       # Per bank write bursts
system.mem_ctrls.perBankWrBursts::12            88832                       # Per bank write bursts
system.mem_ctrls.perBankWrBursts::13            88832                       # Per bank write bursts
system.mem_ctrls.perBankWrBursts::14            88832                       # Per bank write bursts
system.mem_ctrls.perBankWrBursts::15            88836                       # Per bank write bursts
system.mem_ctrls.avgRdQLen                       1.00                       # Average read queue length when enqueuing
system.mem_ctrls.avgWrQLen                      23.85                       # Average write queue length when enqueuing
system.mem_ctrls.totQLat                  17008665250                       # Total ticks spent queuing
system.mem_ctrls.totBusLat                 7442805000                       # Total ticks spent in databus transfers
system.mem_ctrls.totMemAccLat             44919184000                       # Total ticks spent from burst creation until serviced by the DRAM
system.mem_ctrls.avgQLat                     11426.25                       # Average queueing delay per DRAM burst
system.mem_ctrls.avgBusLat                    5000.00                       # Average bus latency per DRAM burst
system.mem_ctrls.avgMemAccLat                30176.25                       # Average memory access latency per DRAM burst
system.mem_ctrls.numRdRetry                         0                       # Number of times read queue was full causing retry
system.mem_ctrls.numWrRetry                         0                       # Number of times write queue was full causing retry
system.mem_ctrls.readRowHits                  1317146                       # Number of row buffer hits during reads
system.mem_ctrls.writeRowHits                 1263031                       # Number of row buffer hits during writes
system.mem_ctrls.readRowHitRate                 88.48                       # Row buffer hit rate for reads
system.mem_ctrls.writeRowHitRate                88.80                       # Row buffer hit rate for writes
system.mem_ctrls.readPktSize::0                     0                       # Read request sizes (log2)
system.mem_ctrls.readPktSize::1                     0                       # Read request sizes (log2)
system.mem_ctrls.readPktSize::2                     0                       # Read request sizes (log2)
system.mem_ctrls.readPktSize::3                     0                       # Read request sizes (log2)
system.mem_ctrls.readPktSize::4                     0                       # Read request sizes (log2)
system.mem_ctrls.readPktSize::5                     0                       # Read request sizes (log2)
system.mem_ctrls.readPktSize::6               1488561                       # Read request sizes (log2)
system.mem_ctrls.writePktSize::0                    0                       # Write request sizes (log2)
system.mem_ctrls.writePktSize::1                    0                       # Write request sizes (log2)
system.mem_ctrls.writePktSize::2                    0                       # Write request sizes (log2)
system.mem_ctrls.writePktSize::3                    0                       # Write request sizes (log2)
system.mem_ctrls.writePktSize::4                    0                       # Write request sizes (log2)
system.mem_ctrls.writePktSize::5                    0                       # Write request sizes (log2)
system.mem_ctrls.writePktSize::6              1422334                       # Write request sizes (log2)
system.mem_ctrls.rdQLenPdf::0                 1488473                       # What read queue length does an incoming req see
system.mem_ctrls.rdQLenPdf::1                      79                       # What read queue length does an incoming req see
system.mem_ctrls.rdQLenPdf::2                       8                       # What read queue length does an incoming req see
system.mem_ctrls.rdQLenPdf::3                       1                       # What read queue length does an incoming req see
system.mem_ctrls.rdQLenPdf::4                       0                       # What read queue length does an incoming req see
system.mem_ctrls.rdQLenPdf::5                       0                       # What read queue length does an incoming req see
system.mem_ctrls.rdQLenPdf::6                       0                       # What read queue length does an incoming req see
system.mem_ctrls.rdQLenPdf::7                       0                       # What read queue length does an incoming req see
system.mem_ctrls.rdQLenPdf::8                       0                       # What read queue length does an incoming req see
system.mem_ctrls.rdQLenPdf::9                       0                       # What read queue length does an incoming req see
system.mem_ctrls.rdQLenPdf::10                      0                       # What read queue length does an incoming req see
system.mem_ctrls.rdQLenPdf::11                      0                       # What read queue length does an incoming req see
system.mem_ctrls.rdQLenPdf::12                      0                       # What read queue length does an incoming req see
system.mem_ctrls.rdQLenPdf::13                      0                       # What read queue length does an incoming req see
system.mem_ctrls.rdQLenPdf::14                      0                       # What read queue length does an incoming req see
system.mem_ctrls.rdQLenPdf::15                      0                       # What read queue length does an incoming req see
system.mem_ctrls.rdQLenPdf::16                      0                       # What read queue length does an incoming req see
system.mem_ctrls.rdQLenPdf::17                      0                       # What read queue length does an incoming req see
system.mem_ctrls.rdQLenPdf::18                      0                       # What read queue length does an incoming req see
system.mem_ctrls.rdQLenPdf::19                      0                       # What read queue length does an incoming req see
system.mem_ctrls.rdQLenPdf::20                      0                       # What read queue length does an incoming req see
system.mem_ctrls.rdQLenPdf::21                      0                       # What read queue length does an incoming req see
system.mem_ctrls.rdQLenPdf::22                      0                       # What read queue length does an incoming req see
system.mem_ctrls.rdQLenPdf::23                      0                       # What read queue length does an incoming req see
system.mem_ctrls.rdQLenPdf::24                      0                       # What read queue length does an incoming req see
system.mem_ctrls.rdQLenPdf::25                      0                       # What read queue length does an incoming req see
system.mem_ctrls.rdQLenPdf::26                      0                       # What read queue length does an incoming req see
system.mem_ctrls.rdQLenPdf::27                      0                       # What read queue length does an incoming req see
system.mem_ctrls.rdQLenPdf::28                      0                       # What read queue length does an incoming req see
system.mem_ctrls.rdQLenPdf::29                      0                       # What read queue length does an incoming req see
system.mem_ctrls.rdQLenPdf::30                      0                       # What read queue length does an incoming req see
system.mem_ctrls.rdQLenPdf::31                      0                       # What read queue length does an incoming req see
system.mem_ctrls.wrQLenPdf::0                       1                       # What write queue length does an incoming req see
system.mem_ctrls.wrQLenPdf::1                       1                       # What write queue length does an incoming req see
system.mem_ctrls.wrQLenPdf::2                       1                       # What write queue length does an incoming req see
system.mem_ctrls.wrQLenPdf::3                       1                       # What write queue length does an incoming req see
system.mem_ctrls.wrQLenPdf::4                       1                       # What write queue length does an incoming req see
system.mem_ctrls.wrQLenPdf::5                       1                       # What write queue length does an incoming req see
system.mem_ctrls.wrQLenPdf::6                       1                       # What write queue length does an incoming req see
system.mem_ctrls.wrQLenPdf::7                       1                       # What write queue length does an incoming req see
system.mem_ctrls.wrQLenPdf::8                       1                       # What write queue length does an incoming req see
system.mem_ctrls.wrQLenPdf::9                       1                       # What write queue length does an incoming req see
system.mem_ctrls.wrQLenPdf::10                      1                       # What write queue length does an incoming req see
system.mem_ctrls.wrQLenPdf::11                      1                       # What write queue length does an incoming req see
system.mem_ctrls.wrQLenPdf::12                      1                       # What write queue length does an incoming req see
system.mem_ctrls.wrQLenPdf::13                      1                       # What write queue length does an incoming req see
system.mem_ctrls.wrQLenPdf::14                      1                       # What write queue length does an incoming req see
system.mem_ctrls.wrQLenPdf::15                  77792                       # What write queue length does an incoming req see
system.mem_ctrls.wrQLenPdf::16                  78052                       # What write queue length does an incoming req see
system.mem_ctrls.wrQLenPdf::17                  79097                       # What write queue length does an incoming req see
system.mem_ctrls.wrQLenPdf::18                  79107                       # What write queue length does an incoming req see
system.mem_ctrls.wrQLenPdf::19                  79090                       # What write queue length does an incoming req see
system.mem_ctrls.wrQLenPdf::20                  79096                       # What write queue length does an incoming req see
system.mem_ctrls.wrQLenPdf::21                  79118                       # What write queue length does an incoming req see
system.mem_ctrls.wrQLenPdf::22                  79113                       # What write queue length does an incoming req see
system.mem_ctrls.wrQLenPdf::23                  80050                       # What write queue length does an incoming req see
system.mem_ctrls.wrQLenPdf::24                  79092                       # What write queue length does an incoming req see
system.mem_ctrls.wrQLenPdf::25                  79089                       # What write queue length does an incoming req see
system.mem_ctrls.wrQLenPdf::26                  79089                       # What write queue length does an incoming req see
system.mem_ctrls.wrQLenPdf::27                  79089                       # What write queue length does an incoming req see
system.mem_ctrls.wrQLenPdf::28                  79089                       # What write queue length does an incoming req see
system.mem_ctrls.wrQLenPdf::29                  79089                       # What write queue length does an incoming req see
system.mem_ctrls.wrQLenPdf::30                  79089                       # What write queue length does an incoming req see
system.mem_ctrls.wrQLenPdf::31                  79089                       # What write queue length does an incoming req see
system.mem_ctrls.wrQLenPdf::32                  79089                       # What write queue length does an incoming req see
system.mem_ctrls.wrQLenPdf::33                      0                       # What write queue length does an incoming req see
system.mem_ctrls.wrQLenPdf::34                      0                       # What write queue length does an incoming req see
system.mem_ctrls.wrQLenPdf::35                      0                       # What write queue length does an incoming req see
system.mem_ctrls.wrQLenPdf::36                      0                       # What write queue length does an incoming req see
system.mem_ctrls.wrQLenPdf::37                      0                       # What write queue length does an incoming req see
system.mem_ctrls.wrQLenPdf::38                      0                       # What write queue length does an incoming req see
system.mem_ctrls.wrQLenPdf::39                      0                       # What write queue length does an incoming req see
system.mem_ctrls.wrQLenPdf::40                      0                       # What write queue length does an incoming req see
system.mem_ctrls.wrQLenPdf::41                      0                       # What write queue length does an incoming req see
system.mem_ctrls.wrQLenPdf::42                      0                       # What write queue length does an incoming req see
system.mem_ctrls.wrQLenPdf::43                      0                       # What write queue length does an incoming req see
system.mem_ctrls.wrQLenPdf::44                      0                       # What write queue length does an incoming req see
system.mem_ctrls.wrQLenPdf::45                      0                       # What write queue length does an incoming req see
system.mem_ctrls.wrQLenPdf::46                      0                       # What write queue length does an incoming req see
system.mem_ctrls.wrQLenPdf::47                      0                       # What write queue length does an incoming req see
system.mem_ctrls.wrQLenPdf::48                      0                       # What write queue length does an incoming req see
system.mem_ctrls.wrQLenPdf::49                      0                       # What write queue length does an incoming req see
system.mem_ctrls.wrQLenPdf::50                      0                       # What write queue length does an incoming req see
system.mem_ctrls.wrQLenPdf::51                      0                       # What write queue length does an incoming req see
system.mem_ctrls.wrQLenPdf::52                      0                       # What write queue length does an incoming req see
system.mem_ctrls.wrQLenPdf::53                      0                       # What write queue length does an incoming req see
system.mem_ctrls.wrQLenPdf::54                      0                       # What write queue length does an incoming req see
system.mem_ctrls.wrQLenPdf::55                      0                       # What write queue length does an incoming req see
system.mem_ctrls.wrQLenPdf::56                      0                       # What write queue length does an incoming req see
system.mem_ctrls.wrQLenPdf::57                      0                       # What write queue length does an incoming req see
system.mem_ctrls.wrQLenPdf::58                      0                       # What write queue length does an incoming req see
system.mem_ctrls.wrQLenPdf::59                      0                       # What write queue length does an incoming req see
system.mem_ctrls.wrQLenPdf::60                      0                       # What write queue length does an incoming req see
system.mem_ctrls.wrQLenPdf::61                      0                       # What write queue length does an incoming req see
system.mem_ctrls.wrQLenPdf::62                      0                       # What write queue length does an incoming req see
system.mem_ctrls.wrQLenPdf::63                      0                       # What write queue length does an incoming req see
system.mem_ctrls.bytesPerActivate::samples       330692                       # Bytes accessed per row activation
system.mem_ctrls.bytesPerActivate::mean    563.349098                       # Bytes accessed per row activation
system.mem_ctrls.bytesPerActivate::gmean   373.763594                       # Bytes accessed per row activation
system.mem_ctrls.bytesPerActivate::stdev   411.794985                       # Bytes accessed per row activation
system.mem_ctrls.bytesPerActivate::0-127        15134      4.58%      4.58% # Bytes accessed per row activation
system.mem_ctrls.bytesPerActivate::128-255       121337     36.69%     41.27% # Bytes accessed per row activation
system.mem_ctrls.bytesPerActivate::256-383        12023      3.64%     44.90% # Bytes accessed per row activation
system.mem_ctrls.bytesPerActivate::384-511        11924      3.61%     48.51% # Bytes accessed per row activation
system.mem_ctrls.bytesPerActivate::512-639        13073      3.95%     52.46% # Bytes accessed per row activation
system.mem_ctrls.bytesPerActivate::640-767        10496      3.17%     55.64% # Bytes accessed per row activation
system.mem_ctrls.bytesPerActivate::768-895        11301      3.42%     59.05% # Bytes accessed per row activation
system.mem_ctrls.bytesPerActivate::896-1023        12570      3.80%     62.86% # Bytes accessed per row activation
system.mem_ctrls.bytesPerActivate::1024-1151       122834     37.14%    100.00% # Bytes accessed per row activation
system.mem_ctrls.bytesPerActivate::total       330692                       # Bytes accessed per row activation
system.mem_ctrls.rdPerTurnAround::samples        79089                       # Reads before turning the bus around for writes
system.mem_ctrls.rdPerTurnAround::mean      18.821214                       # Reads before turning the bus around for writes
system.mem_ctrls.rdPerTurnAround::gmean     17.986764                       # Reads before turning the bus around for writes
system.mem_ctrls.rdPerTurnAround::stdev    226.807338                       # Reads before turning the bus around for writes
system.mem_ctrls.rdPerTurnAround::0-2047        79087    100.00%    100.00% # Reads before turning the bus around for writes
system.mem_ctrls.rdPerTurnAround::2048-4095            1      0.00%    100.00% # Reads before turning the bus around for writes
system.mem_ctrls.rdPerTurnAround::63488-65535            1      0.00%    100.00% # Reads before turning the bus around for writes
system.mem_ctrls.rdPerTurnAround::total         79089                       # Reads before turning the bus around for writes
system.mem_ctrls.wrPerTurnAround::samples        79089                       # Writes before turning the bus around for reads
system.mem_ctrls.wrPerTurnAround::mean      17.983651                       # Writes before turning the bus around for reads
system.mem_ctrls.wrPerTurnAround::gmean     17.981818                       # Writes before turning the bus around for reads
system.mem_ctrls.wrPerTurnAround::stdev      0.249363                       # Writes before turning the bus around for reads
system.mem_ctrls.wrPerTurnAround::16             1038      1.31%      1.31% # Writes before turning the bus around for reads
system.mem_ctrls.wrPerTurnAround::17                2      0.00%      1.31% # Writes before turning the bus around for reads
system.mem_ctrls.wrPerTurnAround::18            77264     97.69%     99.01% # Writes before turning the bus around for reads
system.mem_ctrls.wrPerTurnAround::19              785      0.99%    100.00% # Writes before turning the bus around for reads
system.mem_ctrls.wrPerTurnAround::total         79089                       # Writes before turning the bus around for reads
system.mem_ctrls.bytesReadDRAM               95267904                       # Total number of bytes read from DRAM
[...]
system.cpu.icache.ReadReq_avg_miss_latency::.cpu.inst 100761.431412                       # average ReadReq miss latency
system.cpu.icache.ReadReq_avg_miss_latency::total 100761.431412                       # average ReadReq miss latency
system.cpu.icache.ReadReq_mshr_misses::.cpu.inst          503                       # number of ReadReq MSHR misses
system.cpu.icache.ReadReq_mshr_misses::total          503                       # number of ReadReq MSHR misses
system.cpu.icache.ReadReq_mshr_miss_latency::.cpu.inst     49677000                       # number of ReadReq MSHR miss cycles
system.cpu.icache.ReadReq_mshr_miss_latency::total     49677000                       # number of ReadReq MSHR miss cycles
system.cpu.icache.ReadReq_mshr_miss_rate::.cpu.inst     0.000084                       # mshr miss rate for ReadReq accesses
system.cpu.icache.ReadReq_mshr_miss_rate::total     0.000084                       # mshr miss rate for ReadReq accesses
system.cpu.icache.ReadReq_avg_mshr_miss_latency::.cpu.inst 98761.431412                       # average ReadReq mshr miss latency
system.cpu.icache.ReadReq_avg_mshr_miss_latency::total 98761.431412                       # average ReadReq mshr miss latency
system.cpu.icache.tags.pwrStateResidencyTicks::UNDEFINED 262712753000                       # Cumulative time (in ticks) in various power states
system.cpu.icache.tags.tagsinuse           502.924700                       # Cycle average of tags in use
system.cpu.icache.tags.total_refs             5959486                       # Total number of references to valid blocks.
system.cpu.icache.tags.sampled_refs               503                       # Sample count of references to valid blocks.
system.cpu.icache.tags.avg_refs          11847.884692                       # Average number of references to valid blocks.
system.cpu.icache.tags.warmup_cycle            108000                       # Cycle when the warmup percentage was hit.
system.cpu.icache.tags.occ_blocks::.cpu.inst   502.924700                       # Average occupied blocks per requestor
system.cpu.icache.tags.occ_percent::.cpu.inst     0.122784                       # Average percentage of cache occupancy
system.cpu.icache.tags.occ_percent::total     0.122784                       # Average percentage of cache occupancy
system.cpu.icache.tags.occ_task_id_blocks::1024          503                       # Occupied blocks per task id
system.cpu.icache.tags.age_task_id_blocks_1024::4          503                       # Occupied blocks per task id
system.cpu.icache.tags.occ_task_id_percent::1024     0.122803                       # Percentage of cache occupancy per task id
system.cpu.icache.tags.tag_accesses           5959989                       # Number of tag accesses
system.cpu.icache.tags.data_accesses          5959989                       # Number of data accesses
system.cpu.dtb.walker.pwrStateResidencyTicks::UNDEFINED 262712753000                       # Cumulative time (in ticks) in various power states
system.cpu.dtb.stage2_mmu.stage2_tlb.walker.pwrStateResidencyTicks::UNDEFINED 262712753000                       # Cumulative time (in ticks) in various power states
system.cpu.dcache.pwrStateResidencyTicks::UNDEFINED 262712753000                       # Cumulative time (in ticks) in various power states
system.cpu.dcache.demand_hits::.cpu.data     45827235                       # number of demand (read+write) hits
system.cpu.dcache.demand_hits::total         45827235                       # number of demand (read+write) hits
system.cpu.dcache.overall_hits::.cpu.data     45827268                       # number of overall hits
system.cpu.dcache.overall_hits::total        45827268                       # number of overall hits
system.cpu.dcache.demand_misses::.cpu.data      2979370                       # number of demand (read+write) misses
system.cpu.dcache.demand_misses::total        2979370                       # number of demand (read+write) misses
system.cpu.dcache.overall_misses::.cpu.data      2979389                       # number of overall misses
system.cpu.dcache.overall_misses::total       2979389                       # number of overall misses
system.cpu.dcache.demand_miss_latency::.cpu.data 301161355000                       # number of demand (read+write) miss cycles
system.cpu.dcache.demand_miss_latency::total 301161355000                       # number of demand (read+write) miss cycles
system.cpu.dcache.overall_miss_latency::.cpu.data 301161355000                       # number of overall miss cycles
system.cpu.dcache.overall_miss_latency::total 301161355000                       # number of overall miss cycles
system.cpu.dcache.demand_accesses::.cpu.data     48806605                       # number of demand (read+write) accesses
system.cpu.dcache.demand_accesses::total     48806605                       # number of demand (read+write) accesses
system.cpu.dcache.overall_accesses::.cpu.data     48806657                       # number of overall (read+write) accesses
system.cpu.dcache.overall_accesses::total     48806657                       # number of overall (read+write) accesses
system.cpu.dcache.demand_miss_rate::.cpu.data     0.061044                       # miss rate for demand accesses
system.cpu.dcache.demand_miss_rate::total     0.061044                       # miss rate for demand accesses
system.cpu.dcache.overall_miss_rate::.cpu.data     0.061045                       # miss rate for overall accesses
system.cpu.dcache.overall_miss_rate::total     0.061045                       # miss rate for overall accesses
system.cpu.dcache.demand_avg_miss_latency::.cpu.data 101082.227115                       # average overall miss latency
system.cpu.dcache.demand_avg_miss_latency::total 101082.227115                       # average overall miss latency
system.cpu.dcache.overall_avg_miss_latency::.cpu.data 101081.582499                       # average overall miss latency
system.cpu.dcache.overall_avg_miss_latency::total 101081.582499                       # average overall miss latency
system.cpu.dcache.blocked_cycles::no_mshrs            0                       # number of cycles access was blocked
system.cpu.dcache.blocked_cycles::no_targets            0                       # number of cycles access was blocked
system.cpu.dcache.blocked::no_mshrs                 0                       # number of cycles access was blocked
system.cpu.dcache.blocked::no_targets               0                       # number of cycles access was blocked
system.cpu.dcache.avg_blocked_cycles::no_mshrs          nan                       # average number of cycles each access was blocked
system.cpu.dcache.avg_blocked_cycles::no_targets          nan                       # average number of cycles each access was blocked
system.cpu.dcache.writebacks::.writebacks      1481488                       # number of writebacks
system.cpu.dcache.writebacks::total           1481488                       # number of writebacks
system.cpu.dcache.demand_mshr_hits::.cpu.data      1488873                       # number of demand (read+write) MSHR hits
system.cpu.dcache.demand_mshr_hits::total      1488873                       # number of demand (read+write) MSHR hits
system.cpu.dcache.overall_mshr_hits::.cpu.data      1488873                       # number of overall MSHR hits
system.cpu.dcache.overall_mshr_hits::total      1488873                       # number of overall MSHR hits
system.cpu.dcache.demand_mshr_misses::.cpu.data      1490497                       # number of demand (read+write) MSHR misses
system.cpu.dcache.demand_mshr_misses::total      1490497                       # number of demand (read+write) MSHR misses
system.cpu.dcache.overall_mshr_misses::.cpu.data      1490513                       # number of overall MSHR misses
system.cpu.dcache.overall_mshr_misses::total      1490513                       # number of overall MSHR misses
system.cpu.dcache.demand_mshr_miss_latency::.cpu.data 155537290000                       # number of demand (read+write) MSHR miss cycles
system.cpu.dcache.demand_mshr_miss_latency::total 155537290000                       # number of demand (read+write) MSHR miss cycles
system.cpu.dcache.overall_mshr_miss_latency::.cpu.data 155538954000                       # number of overall MSHR miss cycles
system.cpu.dcache.overall_mshr_miss_latency::total 155538954000                       # number of overall MSHR miss cycles
system.cpu.dcache.demand_mshr_miss_rate::.cpu.data     0.030539                       # mshr miss rate for demand accesses
system.cpu.dcache.demand_mshr_miss_rate::total     0.030539                       # mshr miss rate for demand accesses
system.cpu.dcache.overall_mshr_miss_rate::.cpu.data     0.030539                       # mshr miss rate for overall accesses
system.cpu.dcache.overall_mshr_miss_rate::total     0.030539                       # mshr miss rate for overall accesses
system.cpu.dcache.demand_avg_mshr_miss_latency::.cpu.data 104352.635396                       # average overall mshr miss latency
system.cpu.dcache.demand_avg_mshr_miss_latency::total 104352.635396                       # average overall mshr miss latency
system.cpu.dcache.overall_avg_mshr_miss_latency::.cpu.data 104352.631611                       # average overall mshr miss latency
system.cpu.dcache.overall_avg_mshr_miss_latency::total 104352.631611                       # average overall mshr miss latency
system.cpu.dcache.replacements                1482320                       # number of replacements
system.cpu.dcache.ReadReq_hits::.cpu.data     35709450                       # number of ReadReq hits
system.cpu.dcache.ReadReq_hits::total        35709450                       # number of ReadReq hits
system.cpu.dcache.ReadReq_misses::.cpu.data         1564                       # number of ReadReq misses
system.cpu.dcache.ReadReq_misses::total          1564                       # number of ReadReq misses
system.cpu.dcache.ReadReq_miss_latency::.cpu.data     87176000                       # number of ReadReq miss cycles
system.cpu.dcache.ReadReq_miss_latency::total     87176000                       # number of ReadReq miss cycles
system.cpu.dcache.ReadReq_accesses::.cpu.data     35711014                       # number of ReadReq accesses(hits+misses)
system.cpu.dcache.ReadReq_accesses::total     35711014                       # number of ReadReq accesses(hits+misses)
system.cpu.dcache.ReadReq_miss_rate::.cpu.data     0.000044                       # miss rate for ReadReq accesses
system.cpu.dcache.ReadReq_miss_rate::total     0.000044                       # miss rate for ReadReq accesses
system.cpu.dcache.ReadReq_avg_miss_latency::.cpu.data 55739.130435                       # average ReadReq miss latency
system.cpu.dcache.ReadReq_avg_miss_latency::total 55739.130435                       # average ReadReq miss latency
system.cpu.dcache.ReadReq_mshr_hits::.cpu.data            5                       # number of ReadReq MSHR hits
system.cpu.dcache.ReadReq_mshr_hits::total            5                       # number of ReadReq MSHR hits
system.cpu.dcache.ReadReq_mshr_misses::.cpu.data         1559                       # number of ReadReq MSHR misses
system.cpu.dcache.ReadReq_mshr_misses::total         1559                       # number of ReadReq MSHR misses
system.cpu.dcache.ReadReq_mshr_miss_latency::.cpu.data     83520000                       # number of ReadReq MSHR miss cycles
system.cpu.dcache.ReadReq_mshr_miss_latency::total     83520000                       # number of ReadReq MSHR miss cycles
system.cpu.dcache.ReadReq_mshr_miss_rate::.cpu.data     0.000044                       # mshr miss rate for ReadReq accesses
system.cpu.dcache.ReadReq_mshr_miss_rate::total     0.000044                       # mshr miss rate for ReadReq accesses
system.cpu.dcache.ReadReq_avg_mshr_miss_latency::.cpu.data 53572.803079                       # average ReadReq mshr miss latency
system.cpu.dcache.ReadReq_avg_mshr_miss_latency::total 53572.803079                       # average ReadReq mshr miss latency
system.cpu.dcache.WriteReq_hits::.cpu.data     10117785                       # number of WriteReq hits
system.cpu.dcache.WriteReq_hits::total       10117785                       # number of WriteReq hits
system.cpu.dcache.WriteReq_misses::.cpu.data      2977806                       # number of WriteReq misses
system.cpu.dcache.WriteReq_misses::total      2977806                       # number of WriteReq misses
system.cpu.dcache.WriteReq_miss_latency::.cpu.data 301074179000                       # number of WriteReq miss cycles
system.cpu.dcache.WriteReq_miss_latency::total 301074179000                       # number of WriteReq miss cycles
system.cpu.dcache.WriteReq_accesses::.cpu.data     13095591                       # number of WriteReq accesses(hits+misses)
system.cpu.dcache.WriteReq_accesses::total     13095591                       # number of WriteReq accesses(hits+misses)
system.cpu.dcache.WriteReq_miss_rate::.cpu.data     0.227390                       # miss rate for WriteReq accesses
system.cpu.dcache.WriteReq_miss_rate::total     0.227390                       # miss rate for WriteReq accesses
system.cpu.dcache.WriteReq_avg_miss_latency::.cpu.data 101106.042167                       # average WriteReq miss latency
system.cpu.dcache.WriteReq_avg_miss_latency::total 101106.042167                       # average WriteReq miss latency
system.cpu.dcache.WriteReq_mshr_hits::.cpu.data      1488868                       # number of WriteReq MSHR hits
system.cpu.dcache.WriteReq_mshr_hits::total      1488868                       # number of WriteReq MSHR hits
system.cpu.dcache.WriteReq_mshr_misses::.cpu.data      1488938                       # number of WriteReq MSHR misses
system.cpu.dcache.WriteReq_mshr_misses::total      1488938                       # number of WriteReq MSHR misses
system.cpu.dcache.WriteReq_mshr_miss_latency::.cpu.data 155453770000                       # number of WriteReq MSHR miss cycles
system.cpu.dcache.WriteReq_mshr_miss_latency::total 155453770000                       # number of WriteReq MSHR miss cycles
system.cpu.dcache.WriteReq_mshr_miss_rate::.cpu.data     0.113698                       # mshr miss rate for WriteReq accesses
system.cpu.dcache.WriteReq_mshr_miss_rate::total     0.113698                       # mshr miss rate for WriteReq accesses
system.cpu.dcache.WriteReq_avg_mshr_miss_latency::.cpu.data 104405.804674                       # average WriteReq mshr miss latency
system.cpu.dcache.WriteReq_avg_mshr_miss_latency::total 104405.804674                       # average WriteReq mshr miss latency
system.cpu.dcache.SoftPFReq_hits::.cpu.data           33                       # number of SoftPFReq hits
system.cpu.dcache.SoftPFReq_hits::total            33                       # number of SoftPFReq hits
system.cpu.dcache.SoftPFReq_misses::.cpu.data           19                       # number of SoftPFReq misses
system.cpu.dcache.SoftPFReq_misses::total           19                       # number of SoftPFReq misses
system.cpu.dcache.SoftPFReq_accesses::.cpu.data           52                       # number of SoftPFReq accesses(hits+misses)
system.cpu.dcache.SoftPFReq_accesses::total           52                       # number of SoftPFReq accesses(hits+misses)
system.cpu.dcache.SoftPFReq_miss_rate::.cpu.data     0.365385                       # miss rate for SoftPFReq accesses
system.cpu.dcache.SoftPFReq_miss_rate::total     0.365385                       # miss rate for SoftPFReq accesses
system.cpu.dcache.SoftPFReq_mshr_misses::.cpu.data           16                       # number of SoftPFReq MSHR misses
system.cpu.dcache.SoftPFReq_mshr_misses::total           16                       # number of SoftPFReq MSHR misses
system.cpu.dcache.SoftPFReq_mshr_miss_latency::.cpu.data      1664000                       # number of SoftPFReq MSHR miss cycles
system.cpu.dcache.SoftPFReq_mshr_miss_latency::total      1664000                       # number of SoftPFReq MSHR miss cycles
system.cpu.dcache.SoftPFReq_mshr_miss_rate::.cpu.data     0.307692                       # mshr miss rate for SoftPFReq accesses
system.cpu.dcache.SoftPFReq_mshr_miss_rate::total     0.307692                       # mshr miss rate for SoftPFReq accesses
system.cpu.dcache.SoftPFReq_avg_mshr_miss_latency::.cpu.data       104000                       # average SoftPFReq mshr miss latency
system.cpu.dcache.SoftPFReq_avg_mshr_miss_latency::total       104000                       # average SoftPFReq mshr miss latency
system.cpu.dcache.LoadLockedReq_hits::.cpu.data           14                       # number of LoadLockedReq hits
system.cpu.dcache.LoadLockedReq_hits::total           14                       # number of LoadLockedReq hits
system.cpu.dcache.LoadLockedReq_accesses::.cpu.data           14                       # number of LoadLockedReq accesses(hits+misses)
system.cpu.dcache.LoadLockedReq_accesses::total           14                       # number of LoadLockedReq accesses(hits+misses)
system.cpu.dcache.StoreCondReq_hits::.cpu.data           14                       # number of StoreCondReq hits
system.cpu.dcache.StoreCondReq_hits::total           14                       # number of StoreCondReq hits
system.cpu.dcache.StoreCondReq_accesses::.cpu.data           14                       # number of StoreCondReq accesses(hits+misses)
system.cpu.dcache.StoreCondReq_accesses::total           14                       # number of StoreCondReq accesses(hits+misses)
system.cpu.dcache.tags.pwrStateResidencyTicks::UNDEFINED 262712753000                       # Cumulative time (in ticks) in various power states
system.cpu.dcache.tags.tagsinuse          8168.375474                       # Cycle average of tags in use
system.cpu.dcache.tags.total_refs            47317808                       # Total number of references to valid blocks.
system.cpu.dcache.tags.sampled_refs           1490512                       # Sample count of references to valid blocks.
system.cpu.dcache.tags.avg_refs             31.746009                       # Average number of references to valid blocks.
system.cpu.dcache.tags.warmup_cycle            223000                       # Cycle when the warmup percentage was hit.
system.cpu.dcache.tags.occ_blocks::.cpu.data  8168.375474                       # Average occupied blocks per requestor
system.cpu.dcache.tags.occ_percent::.cpu.data     0.997116                       # Average percentage of cache occupancy
system.cpu.dcache.tags.occ_percent::total     0.997116                       # Average percentage of cache occupancy
system.cpu.dcache.tags.occ_task_id_blocks::1024         8192                       # Occupied blocks per task id
system.cpu.dcache.tags.age_task_id_blocks_1024::0           57                       # Occupied blocks per task id
system.cpu.dcache.tags.age_task_id_blocks_1024::1          510                       # Occupied blocks per task id
system.cpu.dcache.tags.age_task_id_blocks_1024::2         5090                       # Occupied blocks per task id
system.cpu.dcache.tags.age_task_id_blocks_1024::3         2535                       # Occupied blocks per task id
system.cpu.dcache.tags.occ_task_id_percent::1024            1                       # Percentage of cache occupancy per task id
system.cpu.dcache.tags.tag_accesses          50297197                       # Number of tag accesses
system.cpu.dcache.tags.data_accesses         50297197                       # Number of data accesses
system.cpu.itb.walker.pwrStateResidencyTicks::UNDEFINED 262712753000                       # Cumulative time (in ticks) in various power states
system.cpu.itb.stage2_mmu.stage2_tlb.walker.pwrStateResidencyTicks::UNDEFINED 262712753000                       # Cumulative time (in ticks) in various power states

---------- End Simulation Statistics   ----------
