
---------- Begin Simulation Statistics ----------
final_tick                               115266884000                       # Number of ticks from beginning of simulation (restored from checkpoints and never reset)
host_inst_rate                                 235588                       # Simulator instruction rate (inst/s)
host_mem_usage                                 718748                       # Number of bytes of host memory used
host_op_rate                                   257809                       # Simulator op (including micro ops) rate (op/s)
host_seconds                                   424.47                       # Real time elapsed on the host
host_tick_rate                              271555212                       # Simulator tick rate (ticks/s)
sim_freq                                 1000000000000                       # Frequency of simulated ticks
sim_insts                                   100000001                       # Number of instructions simulated
sim_ops                                     109431937                       # Number of ops (including micro ops) simulated
sim_seconds                                  0.115267                       # Number of seconds simulated
sim_ticks                                115266884000                       # Number of ticks simulated
system.cpu.branchPred.BTBCorrect                    0                       # Number of correct BTB predictions (this stat may not work properly.
system.cpu.branchPred.BTBHitPct             87.599412                       # BTB Hit Percentage
system.cpu.branchPred.BTBHits                 8747616                       # Number of BTB hits
system.cpu.branchPred.BTBLookups              9985930                       # Number of BTB lookups
system.cpu.branchPred.RASInCorrect                348                       # Number of incorrect RAS predictions.
system.cpu.branchPred.condIncorrect            155030                       # Number of conditional branches incorrect
system.cpu.branchPred.condPredicted          16522011                       # Number of conditional branches predicted
system.cpu.branchPred.indirectHits             300029                       # Number of indirect target hits.
system.cpu.branchPred.indirectLookups          540192                       # Number of indirect predictor lookups.
system.cpu.branchPred.indirectMisses           240163                       # Number of indirect misses.
system.cpu.branchPred.lookups                20628852                       # Number of BP lookups
system.cpu.branchPred.usedRAS                 1050670                       # Number of times the RAS was used to get a target.
system.cpu.branchPredindirectMispredicted         1215                       # Number of mispredicted indirect branches.
system.cpu.committedInsts                   100000001                       # Number of instructions committed
system.cpu.committedOps                     109431937                       # Number of ops (including micro ops) committed
system.cpu.cpi                               1.152669                       # CPI: cycles per instruction
system.cpu.discardedOps                        775647                       # Number of ops (including micro ops) which were discarded before commit
system.cpu.dtb.accesses                             0                       # DTB accesses
system.cpu.dtb.align_faults                         0                       # Number of TLB faults due to alignment restrictions
system.cpu.dtb.domain_faults                        0                       # Number of TLB faults due to domain restrictions
system.cpu.dtb.flush_entries                        0                       # Number of entries that have been flushed from TLB
system.cpu.dtb.flush_tlb                            0                       # Number of times complete TLB was flushed
system.cpu.dtb.flush_tlb_asid                       0                       # Number of times TLB was flushed by ASID
system.cpu.dtb.flush_tlb_mva                        0                       # Number of times TLB was flushed by MVA
system.cpu.dtb.flush_tlb_mva_asid                   0                       # Number of times TLB was flushed by MVA & ASID
system.cpu.dtb.hits                                 0                       # DTB hits
system.cpu.dtb.inst_accesses                        0                       # ITB inst accesses
system.cpu.dtb.inst_hits                            0                       # ITB inst hits
system.cpu.dtb.inst_misses                          0                       # ITB inst misses
system.cpu.dtb.misses                               0                       # DTB misses
system.cpu.dtb.perms_faults                         0                       # Number of TLB faults due to permissions restrictions
system.cpu.dtb.prefetch_faults                      0                       # Number of TLB faults due to prefetch
system.cpu.dtb.read_accesses                        0                       # DTB read accesses
system.cpu.dtb.read_hits                            0                       # DTB read hits
system.cpu.dtb.read_misses                          0                       # DTB read misses
system.cpu.dtb.stage2_mmu.stage2_tlb.accesses            0                       # DTB accesses
system.cpu.dtb.stage2_mmu.stage2_tlb.align_faults            0                       # Number of TLB faults due to alignment restrictions
system.cpu.dtb.stage2_mmu.stage2_tlb.domain_faults            0                       # Number of TLB faults due to domain restrictions
system.cpu.dtb.stage2_mmu.stage2_tlb.flush_entries            0                       # Number of entries that have been flushed from TLB
system.cpu.dtb.stage2_mmu.stage2_tlb.flush_tlb            0                       # Number of times complete TLB was flushed
system.cpu.dtb.stage2_mmu.stage2_tlb.flush_tlb_asid            0                       # Number of times TLB was flushed by ASID
system.cpu.dtb.stage2_mmu.stage2_tlb.flush_tlb_mva            0                       # Number of times TLB was flushed by MVA
system.cpu.dtb.stage2_mmu.stage2_tlb.flush_tlb_mva_asid            0                       # Number of times TLB was flushed by MVA & ASID
system.cpu.dtb.stage2_mmu.stage2_tlb.hits            0                       # DTB hits
system.cpu.dtb.stage2_mmu.stage2_tlb.inst_accesses            0                       # ITB inst accesses
system.cpu.dtb.stage2_mmu.stage2_tlb.inst_hits            0                       # ITB inst hits
system.cpu.dtb.stage2_mmu.stage2_tlb.inst_misses            0                       # ITB inst misses
system.cpu.dtb.stage2_mmu.stage2_tlb.misses            0                       # DTB misses
system.cpu.dtb.stage2_mmu.stage2_tlb.perms_faults            0                       # Number of TLB faults due to permissions restrictions
system.cpu.dtb.stage2_mmu.stage2_tlb.prefetch_faults            0                       # Number of TLB faults due to prefetch
system.cpu.dtb.stage2_mmu.stage2_tlb.read_accesses            0                       # DTB read accesses
system.cpu.dtb.stage2_mmu.stage2_tlb.read_hits            0                       # DTB read hits
system.cpu.dtb.stage2_mmu.stage2_tlb.read_misses            0                       # DTB read misses
system.cpu.dtb.stage2_mmu.stage2_tlb.walker.walkRequestOrigin_Requested::Data            0                       # Table walker requests started/completed, data/inst
system.cpu.dtb.stage2_mmu.stage2_tlb.walker.walkRequestOrigin_Requested::Inst            0                       # Table walker requests started/completed, data/inst
system.cpu.dtb.stage2_mmu.stage2_tlb.walker.walkRequestOrigin_Requested::total            0                       # Table walker requests started/completed, data/inst
system.cpu.dtb.stage2_mmu.stage2_tlb.walker.walkRequestOrigin_Completed::Data            0                       # Table walker requests started/completed, data/inst
system.cpu.dtb.stage2_mmu.stage2_tlb.walker.walkRequestOrigin_Completed::Inst            0                       # Table walker requests started/completed, data/inst
system.cpu.dtb.stage2_mmu.stage2_tlb.walker.walkRequestOrigin_Completed::total            0                       # Table walker requests started/completed, data/inst
system.cpu.dtb.stage2_mmu.stage2_tlb.walker.walkRequestOrigin::total            0                       # Table walker requests started/completed, data/inst
system.cpu.dtb.stage2_mmu.stage2_tlb.walker.walks            0                       # Table walker walks requested
system.cpu.dtb.stage2_mmu.stage2_tlb.write_accesses            0                       # DTB write accesses
system.cpu.dtb.stage2_mmu.stage2_tlb.write_hits            0                       # DTB write hits
system.cpu.dtb.stage2_mmu.stage2_tlb.write_misses            0                       # DTB write misses
system.cpu.dtb.walker.walkRequestOrigin_Requested::Data            0                       # Table walker requests started/completed, data/inst
system.cpu.dtb.walker.walkRequestOrigin_Requested::Inst            0                       # Table walker requests started/completed, data/inst
system.cpu.dtb.walker.walkRequestOrigin_Requested::total            0                       # Table walker requests started/completed, data/inst
system.cpu.dtb.walker.walkRequestOrigin_Completed::Data            0                       # Table walker requests started/completed, data/inst
system.cpu.dtb.walker.walkRequestOrigin_Completed::Inst            0                       # Table walker requests started/completed, data/inst
system.cpu.dtb.walker.walkRequestOrigin_Completed::total            0                       # Table walker requests started/completed, data/inst
system.cpu.dtb.walker.walkRequestOrigin::total            0                       # Table walker requests started/completed, data/inst
system.cpu.dtb.walker.walks                         0                       # Table walker walks requested
system.cpu.dtb.write_accesses                       0                       # DTB write accesses
system.cpu.dtb.write_hits                           0                       # DTB write hits
system.cpu.dtb.write_misses                         0                       # DTB write misses
system.cpu.fetch2.amo_instructions                  0                       # Number of memory atomic instructions successfully decoded
system.cpu.fetch2.fp_instructions                   0                       # Number of floating point instructions successfully decoded
system.cpu.fetch2.int_instructions           50001981                       # Number of integer instructions successfully decoded
system.cpu.fetch2.load_instructions          17198989                       # Number of memory load instructions successfully decoded
system.cpu.fetch2.store_instructions         10081960                       # Number of memory store instructions successfully decoded
system.cpu.fetch2.vec_instructions                  0                       # Number of SIMD instructions successfully decoded
system.cpu.idleCycles                         4002757                       # Total number of cycles that the object has spent stopped
system.cpu.ipc                               0.867552                       # IPC: instructions per cycle
system.cpu.itb.accesses                             0                       # DTB accesses
system.cpu.itb.align_faults                         0                       # Number of TLB faults due to alignment restrictions
system.cpu.itb.domain_faults                        0                       # Number of TLB faults due to domain restrictions
system.cpu.itb.flush_entries                        0                       # Number of entries that have been flushed from TLB
system.cpu.itb.flush_tlb                            0                       # Number of times complete TLB was flushed
system.cpu.itb.flush_tlb_asid                       0                       # Number of times TLB was flushed by ASID
system.cpu.itb.flush_tlb_mva                        0                       # Number of times TLB was flushed by MVA
system.cpu.itb.flush_tlb_mva_asid                   0                       # Number of times TLB was flushed by MVA & ASID
system.cpu.itb.hits                                 0                       # DTB hits
system.cpu.itb.inst_accesses                        0                       # ITB inst accesses
system.cpu.itb.inst_hits                            0                       # ITB inst hits
system.cpu.itb.inst_misses                          0                       # ITB inst misses
system.cpu.itb.misses                               0                       # DTB misses
system.cpu.itb.perms_faults                         0                       # Number of TLB faults due to permissions restrictions
system.cpu.itb.prefetch_faults                      0                       # Number of TLB faults due to prefetch
system.cpu.itb.read_accesses                        0                       # DTB read accesses
system.cpu.itb.read_hits                            0                       # DTB read hits
system.cpu.itb.read_misses                          0                       # DTB read misses
system.cpu.itb.stage2_mmu.stage2_tlb.accesses            0                       # DTB accesses
system.cpu.itb.stage2_mmu.stage2_tlb.align_faults            0                       # Number of TLB faults due to alignment restrictions
system.cpu.itb.stage2_mmu.stage2_tlb.domain_faults            0                       # Number of TLB faults due to domain restrictions
system.cpu.itb.stage2_mmu.stage2_tlb.flush_entries            0                       # Number of entries that have been flushed from TLB
system.cpu.itb.stage2_mmu.stage2_tlb.flush_tlb            0                       # Number of times complete TLB was flushed
system.cpu.itb.stage2_mmu.stage2_tlb.flush_tlb_asid            0                       # Number of times TLB was flushed by ASID
system.cpu.itb.stage2_mmu.stage2_tlb.flush_tlb_mva            0                       # Number of times TLB was flushed by MVA
system.cpu.itb.stage2_mmu.stage2_tlb.flush_tlb_mva_asid            0                       # Number of times TLB was flushed by MVA & ASID
system.cpu.itb.stage2_mmu.stage2_tlb.hits            0                       # DTB hits
system.cpu.itb.stage2_mmu.stage2_tlb.inst_accesses            0                       # ITB inst accesses
system.cpu.itb.stage2_mmu.stage2_tlb.inst_hits            0                       # ITB inst hits
system.cpu.itb.stage2_mmu.stage2_tlb.inst_misses            0                       # ITB inst misses
system.cpu.itb.stage2_mmu.stage2_tlb.misses            0                       # DTB misses
system.cpu.itb.stage2_mmu.stage2_tlb.perms_faults            0                       # Number of TLB faults due to permissions restrictions
system.cpu.itb.stage2_mmu.stage2_tlb.prefetch_faults            0                       # Number of TLB faults due to prefetch
system.cpu.itb.stage2_mmu.stage2_tlb.read_accesses            0                       # DTB read accesses
system.cpu.itb.stage2_mmu.stage2_tlb.read_hits            0                       # DTB read hits
system.cpu.itb.stage2_mmu.stage2_tlb.read_misses            0                       # DTB read misses
system.cpu.itb.stage2_mmu.stage2_tlb.walker.walkRequestOrigin_Requested::Data            0                       # Table walker requests started/completed, data/inst
system.cpu.itb.stage2_mmu.stage2_tlb.walker.walkRequestOrigin_Requested::Inst            0                       # Table walker requests started/completed, data/inst
system.cpu.itb.stage2_mmu.stage2_tlb.walker.walkRequestOrigin_Requested::total            0                       # Table walker requests started/completed, data/inst
system.cpu.itb.stage2_mmu.stage2_tlb.walker.walkRequestOrigin_Completed::Data            0                       # Table walker requests started/completed, data/inst
system.cpu.itb.stage2_mmu.stage2_tlb.walker.walkRequestOrigin_Completed::Inst            0                       # Table walker requests started/completed, data/inst
system.cpu.itb.stage2_mmu.stage2_tlb.walker.walkRequestOrigin_Completed::total            0                       # Table walker requests started/completed, data/inst
system.cpu.itb.stage2_mmu.stage2_tlb.walker.walkRequestOrigin::total            0                       # Table walker requests started/completed, data/inst
system.cpu.itb.stage2_mmu.stage2_tlb.walker.walks            0                       # Table walker walks requested
system.cpu.itb.stage2_mmu.stage2_tlb.write_accesses            0                       # DTB write accesses
system.cpu.itb.stage2_mmu.stage2_tlb.write_hits            0                       # DTB write hits
system.cpu.itb.stage2_mmu.stage2_tlb.write_misses            0                       # DTB write misses
system.cpu.itb.walker.walkRequestOrigin_Requested::Data            0                       # Table walker requests started/completed, data/inst
system.cpu.itb.walker.walkRequestOrigin_Requested::Inst            0                       # Table walker requests started/completed, data/inst
system.cpu.itb.walker.walkRequestOrigin_Requested::total            0                       # Table walker requests started/completed, data/inst
system.cpu.itb.walker.walkRequestOrigin_Completed::Data            0                       # Table walker requests started/completed, data/inst
system.cpu.itb.walker.walkRequestOrigin_Completed::Inst            0                       # Table walker requests started/completed, data/inst
system.cpu.itb.walker.walkRequestOrigin_Completed::total            0                       # Table walker requests started/completed, data/inst
system.cpu.itb.walker.walkRequestOrigin::total            0                       # Table walker requests started/completed, data/inst
system.cpu.itb.walker.walks                         0                       # Table walker walks requested
system.cpu.itb.write_accesses                       0                       # DTB write accesses
system.cpu.itb.write_hits                           0                       # DTB write hits
system.cpu.itb.write_misses                         0                       # DTB write misses
system.cpu.numCycles                        115266884                       # number of cpu cycles simulated
system.cpu.numFetchSuspends                         0                       # Number of times Execute suspended instruction fetching
system.cpu.numWorkItemsCompleted                    0                       # number of work items this cpu completed
system.cpu.numWorkItemsStarted                      0                       # number of work items this cpu started
system.cpu.op_class_0::No_OpClass                   0      0.00%      0.00% # Class of committed instruction
system.cpu.op_class_0::IntAlu                72955303     66.67%     66.67% # Class of committed instruction
system.cpu.op_class_0::IntMult                 568365      0.52%     67.19% # Class of committed instruction
system.cpu.op_class_0::IntDiv                       0      0.00%     67.19% # Class of committed instruction
system.cpu.op_class_0::FloatAdd                     0      0.00%     67.19% # Class of committed instruction
system.cpu.op_class_0::FloatCmp                     0      0.00%     67.19% # Class of committed instruction
system.cpu.op_class_0::FloatCvt                     0      0.00%     67.19% # Class of committed instruction
system.cpu.op_class_0::FloatMult                    0      0.00%     67.19% # Class of committed instruction
system.cpu.op_class_0::FloatMultAcc                 0      0.00%     67.19% # Class of committed instruction
system.cpu.op_class_0::FloatDiv                     0      0.00%     67.19% # Class of committed instruction
system.cpu.op_class_0::FloatMisc                    0      0.00%     67.19% # Class of committed instruction
system.cpu.op_class_0::FloatSqrt                    0      0.00%     67.19% # Class of committed instruction
system.cpu.op_class_0::SimdAdd                 241252      0.22%     67.41% # Class of committed instruction
system.cpu.op_class_0::SimdAddAcc                   0      0.00%     67.41% # Class of committed instruction
system.cpu.op_class_0::SimdAlu                 154720      0.14%     67.55% # Class of committed instruction
system.cpu.op_class_0::SimdCmp                 120626      0.11%     67.66% # Class of committed instruction
system.cpu.op_class_0::SimdCvt                      0      0.00%     67.66% # Class of committed instruction
system.cpu.op_class_0::SimdMisc                 44544      0.04%     67.70% # Class of committed instruction
system.cpu.op_class_0::SimdMult                     0      0.00%     67.70% # Class of committed instruction
system.cpu.op_class_0::SimdMultAcc                  0      0.00%     67.70% # Class of committed instruction
system.cpu.op_class_0::SimdShift                    0      0.00%     67.70% # Class of committed instruction
system.cpu.op_class_0::SimdShiftAcc                 0      0.00%     67.70% # Class of committed instruction
system.cpu.op_class_0::SimdDiv                      0      0.00%     67.70% # Class of committed instruction
system.cpu.op_class_0::SimdSqrt                     0      0.00%     67.70% # Class of committed instruction
system.cpu.op_class_0::SimdFloatAdd                 0      0.00%     67.70% # Class of committed instruction
system.cpu.op_class_0::SimdFloatAlu                 0      0.00%     67.70% # Class of committed instruction
system.cpu.op_class_0::SimdFloatCmp                 0      0.00%     67.70% # Class of committed instruction
system.cpu.op_class_0::SimdFloatCvt                 0      0.00%     67.70% # Class of committed instruction
system.cpu.op_class_0::SimdFloatDiv                 0      0.00%     67.70% # Class of committed instruction
system.cpu.op_class_0::SimdFloatMisc           166465      0.15%     67.85% # Class of committed instruction
system.cpu.op_class_0::SimdFloatMult                0      0.00%     67.85% # Class of committed instruction
system.cpu.op_class_0::SimdFloatMultAcc             0      0.00%     67.85% # Class of committed instruction
system.cpu.op_class_0::SimdFloatSqrt                0      0.00%     67.85% # Class of committed instruction
system.cpu.op_class_0::SimdReduceAdd                0      0.00%     67.85% # Class of committed instruction
system.cpu.op_class_0::SimdReduceAlu                0      0.00%     67.85% # Class of committed instruction
system.cpu.op_class_0::SimdReduceCmp                0      0.00%     67.85% # Class of committed instruction
system.cpu.op_class_0::SimdFloatReduceAdd            0      0.00%     67.85% # Class of committed instruction
system.cpu.op_class_0::SimdFloatReduceCmp            0      0.00%     67.85% # Class of committed instruction
system.cpu.op_class_0::SimdAes                      0      0.00%     67.85% # Class of committed instruction
system.cpu.op_class_0::SimdAesMix                   0      0.00%     67.85% # Class of committed instruction
system.cpu.op_class_0::SimdSha1Hash                 0      0.00%     67.85% # Class of committed instruction
system.cpu.op_class_0::SimdSha1Hash2                0      0.00%     67.85% # Class of committed instruction
system.cpu.op_class_0::SimdSha256Hash               0      0.00%     67.85% # Class of committed instruction
system.cpu.op_class_0::SimdSha256Hash2              0      0.00%     67.85% # Class of committed instruction
system.cpu.op_class_0::SimdShaSigma2                0      0.00%     67.85% # Class of committed instruction
system.cpu.op_class_0::SimdShaSigma3                0      0.00%     67.85% # Class of committed instruction
system.cpu.op_class_0::SimdPredAlu                  0      0.00%     67.85% # Class of committed instruction
system.cpu.op_class_0::MemRead               20646465     18.87%     86.72% # Class of committed instruction
system.cpu.op_class_0::MemWrite              14534197     13.28%    100.00% # Class of committed instruction
system.cpu.op_class_0::FloatMemRead                 0      0.00%    100.00% # Class of committed instruction
system.cpu.op_class_0::FloatMemWrite                0      0.00%    100.00% # Class of committed instruction
system.cpu.op_class_0::IprAccess                    0      0.00%    100.00% # Class of committed instruction
system.cpu.op_class_0::InstPrefetch                 0      0.00%    100.00% # Class of committed instruction
system.cpu.op_class_0::total                109431937                       # Class of committed instruction
system.cpu.tickCycles                       111264127                       # Number of cycles that the object actually ticked
system.cpu.workload.numSyscalls                    86                       # Number of system calls
system.membus.snoop_filter.hit_multi_requests            0                       # Number of requests hitting in the snoop filter with multiple (>1) holders of the requested data.
system.membus.snoop_filter.hit_multi_snoops            0                       # Number of snoops hitting in the snoop filter with multiple (>1) holders of the requested data.
system.membus.snoop_filter.hit_single_requests            0                       # Number of requests hitting in the snoop filter with a single holder of the requested data.
system.membus.snoop_filter.hit_single_snoops            0                       # Number of snoops hitting in the snoop filter with a single holder of the requested data.
system.membus.snoop_filter.tot_requests         78807                       # Total number of requests made to the snoop filter.
system.membus.snoop_filter.tot_snoops               0                       # Total number of snoops made to the snoop filter.
system.tol2bus.snoop_filter.hit_multi_requests          334                       # Number of requests hitting in the snoop filter with multiple (>1) holders of the requested data.
system.tol2bus.snoop_filter.hit_multi_snoops            0                       # Number of snoops hitting in the snoop filter with multiple (>1) holders of the requested data.
system.tol2bus.snoop_filter.hit_single_requests        85999                       # Number of requests hitting in the snoop filter with a single holder of the requested data.
system.tol2bus.snoop_filter.hit_single_snoops            0                       # Number of snoops hitting in the snoop filter with a single holder of the requested data.
system.tol2bus.snoop_filter.tot_requests       180993                       # Total number of requests made to the snoop filter.
system.tol2bus.snoop_filter.tot_snoops              0                       # Total number of snoops made to the snoop filter.
system.membus.pwrStateResidencyTicks::UNDEFINED 115266884000                       # Cumulative time (in ticks) in various power states
system.membus.trans_dist::ReadResp               7195                       # Transaction distribution
system.membus.trans_dist::ReadExReq             71612                       # Transaction distribution
system.membus.trans_dist::ReadExResp            71612                       # Transaction distribution
system.membus.trans_dist::ReadSharedReq          7195                       # Transaction distribution
system.membus.pkt_count_system.l2.mem_side::system.mem_ctrls.port       157614                       # Packet count per connected master and slave (bytes)
system.membus.pkt_count::total                 157614                       # Packet count per connected master and slave (bytes)
system.membus.pkt_size_system.l2.mem_side::system.mem_ctrls.port      2521824                       # Cumulative packet size per connected master and slave (bytes)
system.membus.pkt_size::total                 2521824                       # Cumulative packet size per connected master and slave (bytes)
system.membus.snoops                                0                       # Total snoops (count)
system.membus.snoopTraffic                          0                       # Total snoop traffic (bytes)
system.membus.snoop_fanout::samples             78807                       # Request fanout histogram
system.membus.snoop_fanout::mean                    0                       # Request fanout histogram
system.membus.snoop_fanout::stdev                   0                       # Request fanout histogram
system.membus.snoop_fanout::underflows              0      0.00%      0.00% # Request fanout histogram
system.membus.snoop_fanout::0                   78807    100.00%    100.00% # Request fanout histogram
system.membus.snoop_fanout::1                       0      0.00%    100.00% # Request fanout histogram
system.membus.snoop_fanout::overflows               0      0.00%    100.00% # Request fanout histogram
system.membus.snoop_fanout::min_value               0                       # Request fanout histogram
system.membus.snoop_fanout::max_value               0                       # Request fanout histogram
system.membus.snoop_fanout::total               78807                       # Request fanout histogram
system.membus.respLayer1.occupancy          261847000                       # Layer occupancy (ticks)
system.membus.respLayer1.utilization              0.2                       # Layer utilization (%)
system.membus.reqLayer0.occupancy            78807000                       # Layer occupancy (ticks)
system.membus.reqLayer0.utilization               0.1                       # Layer utilization (%)
system.tol2bus.pwrStateResidencyTicks::UNDEFINED 115266884000                       # Cumulative time (in ticks) in various power states
system.tol2bus.trans_dist::ReadResp             22434                       # Transaction distribution
system.tol2bus.trans_dist::WritebackDirty        82003                       # Transaction distribution
system.tol2bus.trans_dist::CleanEvict            3992                       # Transaction distribution
system.tol2bus.trans_dist::ReadExReq            72564                       # Transaction distribution
system.tol2bus.trans_dist::ReadExResp           72564                       # Transaction distribution
system.tol2bus.trans_dist::ReadCleanReq           811                       # Transaction distribution
system.tol2bus.trans_dist::ReadSharedReq        21623                       # Transaction distribution
system.tol2bus.pkt_count_system.cpu.icache.mem_side::system.l2.cpu_side         1622                       # Packet count per connected master and slave (bytes)
system.tol2bus.pkt_count_system.cpu.dcache.mem_side::system.l2.cpu_side       274369                       # Packet count per connected master and slave (bytes)
system.tol2bus.pkt_count::total                275991                       # Packet count per connected master and slave (bytes)
system.tol2bus.pkt_size_system.cpu.icache.mem_side::system.l2.cpu_side        25952                       # Cumulative packet size per connected master and slave (bytes)
system.tol2bus.pkt_size_system.cpu.dcache.mem_side::system.l2.cpu_side      5638080                       # Cumulative packet size per connected master and slave (bytes)
system.tol2bus.pkt_size::total                5664032                       # Cumulative packet size per connected master and slave (bytes)
system.tol2bus.snoops                               0                       # Total snoops (count)
system.tol2bus.snoopTraffic                         0                       # Total snoop traffic (bytes)
system.tol2bus.snoop_fanout::samples            94998                       # Request fanout histogram
system.tol2bus.snoop_fanout::mean            0.003558                       # Request fanout histogram
system.tol2bus.snoop_fanout::stdev           0.059543                       # Request fanout histogram
system.tol2bus.snoop_fanout::underflows             0      0.00%      0.00% # Request fanout histogram
system.tol2bus.snoop_fanout::0                  94660     99.64%     99.64% # Request fanout histogram
system.tol2bus.snoop_fanout::1                    338      0.36%    100.00% # Request fanout histogram
system.tol2bus.snoop_fanout::2                      0      0.00%    100.00% # Request fanout histogram
system.tol2bus.snoop_fanout::overflows              0      0.00%    100.00% # Request fanout histogram
system.tol2bus.snoop_fanout::min_value              0                       # Request fanout histogram
system.tol2bus.snoop_fanout::max_value              1                       # Request fanout histogram
system.tol2bus.snoop_fanout::total              94998                       # Request fanout histogram
system.tol2bus.reqLayer0.occupancy          262996000                       # Layer occupancy (ticks)
system.tol2bus.reqLayer0.utilization              0.2                       # Layer utilization (%)
system.tol2bus.respLayer1.occupancy         188376997                       # Layer occupancy (ticks)
system.tol2bus.respLayer1.utilization             0.2                       # Layer utilization (%)
system.tol2bus.respLayer0.occupancy           1622000                       # Layer occupancy (ticks)
system.tol2bus.respLayer0.utilization             0.0                       # Layer utilization (%)
system.voltage_domain.voltage                       1                       # Voltage in Volts
system.clk_domain.clock                          1000                       # Clock period in ticks
system.l2.pwrStateResidencyTicks::UNDEFINED 115266884000                       # Cumulative time (in ticks) in various power states
system.l2.demand_hits::.cpu.inst                    9                       # number of demand (read+write) hits
system.l2.demand_hits::.cpu.data                16180                       # number of demand (read+write) hits
system.l2.demand_hits::total                    16189                       # number of demand (read+write) hits
system.l2.overall_hits::.cpu.inst                   9                       # number of overall hits
system.l2.overall_hits::.cpu.data               16180                       # number of overall hits
system.l2.overall_hits::total                   16189                       # number of overall hits
system.l2.demand_misses::.cpu.inst                802                       # number of demand (read+write) misses
system.l2.demand_misses::.cpu.data              78007                       # number of demand (read+write) misses
system.l2.demand_misses::total                  78809                       # number of demand (read+write) misses
system.l2.overall_misses::.cpu.inst               802                       # number of overall misses
system.l2.overall_misses::.cpu.data             78007                       # number of overall misses
system.l2.overall_misses::total                 78809                       # number of overall misses
system.l2.demand_miss_latency::.cpu.inst     77501000                       # number of demand (read+write) miss cycles
system.l2.demand_miss_latency::.cpu.data   8183228000                       # number of demand (read+write) miss cycles
system.l2.demand_miss_latency::total       8260729000                       # number of demand (read+write) miss cycles
system.l2.overall_miss_latency::.cpu.inst     77501000                       # number of overall miss cycles
system.l2.overall_miss_latency::.cpu.data   8183228000                       # number of overall miss cycles
system.l2.overall_miss_latency::total      8260729000                       # number of overall miss cycles
system.l2.demand_accesses::.cpu.inst              811                       # number of demand (read+write) accesses
system.l2.demand_accesses::.cpu.data            94187                       # number of demand (read+write) accesses
system.l2.demand_accesses::total                94998                       # number of demand (read+write) accesses
system.l2.overall_accesses::.cpu.inst             811                       # number of overall (read+write) accesses
system.l2.overall_accesses::.cpu.data           94187                       # number of overall (read+write) accesses
system.l2.overall_accesses::total               94998                       # number of overall (read+write) accesses
system.l2.demand_miss_rate::.cpu.inst        0.988903                       # miss rate for demand accesses
system.l2.demand_miss_rate::.cpu.data        0.828214                       # miss rate for demand accesses
system.l2.demand_miss_rate::total            0.829586                       # miss rate for demand accesses
system.l2.overall_miss_rate::.cpu.inst       0.988903                       # miss rate for overall accesses
system.l2.overall_miss_rate::.cpu.data       0.828214                       # miss rate for overall accesses
system.l2.overall_miss_rate::total           0.829586                       # miss rate for overall accesses
system.l2.demand_avg_miss_latency::.cpu.inst 96634.663342                       # average overall miss latency
system.l2.demand_avg_miss_latency::.cpu.data 104903.765047                       # average overall miss latency
system.l2.demand_avg_miss_latency::total 104819.614511                       # average overall miss latency
system.l2.overall_avg_miss_latency::.cpu.inst 96634.663342                       # average overall miss latency
system.l2.overall_avg_miss_latency::.cpu.data 104903.765047                       # average overall miss latency
system.l2.overall_avg_miss_latency::total 104819.614511                       # average overall miss latency
system.l2.blocked_cycles::no_mshrs                  0                       # number of cycles access was blocked
system.l2.blocked_cycles::no_targets                0                       # number of cycles access was blocked
system.l2.blocked::no_mshrs                         0                       # number of cycles access was blocked
system.l2.blocked::no_targets                       0                       # number of cycles access was blocked
system.l2.avg_blocked_cycles::no_mshrs            nan                       # average number of cycles each access was blocked
system.l2.avg_blocked_cycles::no_targets          nan                       # average number of cycles each access was blocked
system.l2.demand_mshr_hits::.cpu.data               2                       # number of demand (read+write) MSHR hits
system.l2.demand_mshr_hits::total                   2                       # number of demand (read+write) MSHR hits
system.l2.overall_mshr_hits::.cpu.data              2                       # number of overall MSHR hits
system.l2.overall_mshr_hits::total                  2                       # number of overall MSHR hits
system.l2.demand_mshr_misses::.cpu.inst           802                       # number of demand (read+write) MSHR misses
system.l2.demand_mshr_misses::.cpu.data         78005                       # number of demand (read+write) MSHR misses
system.l2.demand_mshr_misses::total             78807                       # number of demand (read+write) MSHR misses
system.l2.overall_mshr_misses::.cpu.inst          802                       # number of overall MSHR misses
system.l2.overall_mshr_misses::.cpu.data        78005                       # number of overall MSHR misses
system.l2.overall_mshr_misses::total            78807                       # number of overall MSHR misses
system.l2.demand_mshr_miss_latency::.cpu.inst     61461000                       # number of demand (read+write) MSHR miss cycles
system.l2.demand_mshr_miss_latency::.cpu.data   6622940000                       # number of demand (read+write) MSHR miss cycles
system.l2.demand_mshr_miss_latency::total   6684401000                       # number of demand (read+write) MSHR miss cycles
system.l2.overall_mshr_miss_latency::.cpu.inst     61461000                       # number of overall MSHR miss cycles
system.l2.overall_mshr_miss_latency::.cpu.data   6622940000                       # number of overall MSHR miss cycles
system.l2.overall_mshr_miss_latency::total   6684401000                       # number of overall MSHR miss cycles
system.l2.demand_mshr_miss_rate::.cpu.inst     0.988903                       # mshr miss rate for demand accesses
system.l2.demand_mshr_miss_rate::.cpu.data     0.828193                       # mshr miss rate for demand accesses
system.l2.demand_mshr_miss_rate::total       0.829565                       # mshr miss rate for demand accesses
system.l2.overall_mshr_miss_rate::.cpu.inst     0.988903                       # mshr miss rate for overall accesses
system.l2.overall_mshr_miss_rate::.cpu.data     0.828193                       # mshr miss rate for overall accesses
system.l2.overall_mshr_miss_rate::total      0.829565                       # mshr miss rate for overall accesses
system.l2.demand_avg_mshr_miss_latency::.cpu.inst 76634.663342                       # average overall mshr miss latency
system.l2.demand_avg_mshr_miss_latency::.cpu.data 84904.044613                       # average overall mshr miss latency
system.l2.demand_avg_mshr_miss_latency::total 84819.889096                       # average overall mshr miss latency
system.l2.overall_avg_mshr_miss_latency::.cpu.inst 76634.663342                       # average overall mshr miss latency
system.l2.overall_avg_mshr_miss_latency::.cpu.data 84904.044613                       # average overall mshr miss latency
system.l2.overall_avg_mshr_miss_latency::total 84819.889096                       # average overall mshr miss latency
system.l2.replacements                              0                       # number of replacements
system.l2.WritebackDirty_hits::.writebacks        82003                       # number of WritebackDirty hits
system.l2.WritebackDirty_hits::total            82003                       # number of WritebackDirty hits
system.l2.WritebackDirty_accesses::.writebacks        82003                       # number of WritebackDirty accesses(hits+misses)
system.l2.WritebackDirty_accesses::total        82003                       # number of WritebackDirty accesses(hits+misses)
system.l2.ReadExReq_hits::.cpu.data               952                       # number of ReadExReq hits
system.l2.ReadExReq_hits::total                   952                       # number of ReadExReq hits
system.l2.ReadExReq_misses::.cpu.data           71612                       # number of ReadExReq misses
system.l2.ReadExReq_misses::total               71612                       # number of ReadExReq misses
system.l2.ReadExReq_miss_latency::.cpu.data   7530699000                       # number of ReadExReq miss cycles
system.l2.ReadExReq_miss_latency::total    7530699000                       # number of ReadExReq miss cycles
system.l2.ReadExReq_accesses::.cpu.data         72564                       # number of ReadExReq accesses(hits+misses)
system.l2.ReadExReq_accesses::total             72564                       # number of ReadExReq accesses(hits+misses)
system.l2.ReadExReq_miss_rate::.cpu.data     0.986881                       # miss rate for ReadExReq accesses
system.l2.ReadExReq_miss_rate::total         0.986881                       # miss rate for ReadExReq accesses
system.l2.ReadExReq_avg_miss_latency::.cpu.data 105159.735798                       # average ReadExReq miss latency
system.l2.ReadExReq_avg_miss_latency::total 105159.735798                       # average ReadExReq miss latency
system.l2.ReadExReq_mshr_misses::.cpu.data        71612                       # number of ReadExReq MSHR misses
system.l2.ReadExReq_mshr_misses::total          71612                       # number of ReadExReq MSHR misses
system.l2.ReadExReq_mshr_miss_latency::.cpu.data   6098459000                       # number of ReadExReq MSHR miss cycles
system.l2.ReadExReq_mshr_miss_latency::total   6098459000                       # number of ReadExReq MSHR miss cycles
system.l2.ReadExReq_mshr_miss_rate::.cpu.data     0.986881                       # mshr miss rate for ReadExReq accesses
system.l2.ReadExReq_mshr_miss_rate::total     0.986881                       # mshr miss rate for ReadExReq accesses
system.l2.ReadExReq_avg_mshr_miss_latency::.cpu.data 85159.735798                       # average ReadExReq mshr miss latency
system.l2.ReadExReq_avg_mshr_miss_latency::total 85159.735798                       # average ReadExReq mshr miss latency
system.l2.ReadCleanReq_hits::.cpu.inst              9                       # number of ReadCleanReq hits
system.l2.ReadCleanReq_hits::total                  9                       # number of ReadCleanReq hits
system.l2.ReadCleanReq_misses::.cpu.inst          802                       # number of ReadCleanReq misses
system.l2.ReadCleanReq_misses::total              802                       # number of ReadCleanReq misses
system.l2.ReadCleanReq_miss_latency::.cpu.inst     77501000                       # number of ReadCleanReq miss cycles
system.l2.ReadCleanReq_miss_latency::total     77501000                       # number of ReadCleanReq miss cycles
system.l2.ReadCleanReq_accesses::.cpu.inst          811                       # number of ReadCleanReq accesses(hits+misses)
system.l2.ReadCleanReq_accesses::total            811                       # number of ReadCleanReq accesses(hits+misses)
system.l2.ReadCleanReq_miss_rate::.cpu.inst     0.988903                       # miss rate for ReadCleanReq accesses
system.l2.ReadCleanReq_miss_rate::total      0.988903                       # miss rate for ReadCleanReq accesses
system.l2.ReadCleanReq_avg_miss_latency::.cpu.inst 96634.663342                       # average ReadCleanReq miss latency
system.l2.ReadCleanReq_avg_miss_latency::total 96634.663342                       # average ReadCleanReq miss latency
system.l2.ReadCleanReq_mshr_misses::.cpu.inst          802                       # number of ReadCleanReq MSHR misses
system.l2.ReadCleanReq_mshr_misses::total          802                       # number of ReadCleanReq MSHR misses
system.l2.ReadCleanReq_mshr_miss_latency::.cpu.inst     61461000                       # number of ReadCleanReq MSHR miss cycles
system.l2.ReadCleanReq_mshr_miss_latency::total     61461000                       # number of ReadCleanReq MSHR miss cycles
system.l2.ReadCleanReq_mshr_miss_rate::.cpu.inst     0.988903                       # mshr miss rate for ReadCleanReq accesses
system.l2.ReadCleanReq_mshr_miss_rate::total     0.988903                       # mshr miss rate for ReadCleanReq accesses
system.l2.ReadCleanReq_avg_mshr_miss_latency::.cpu.inst 76634.663342                       # average ReadCleanReq mshr miss latency
system.l2.ReadCleanReq_avg_mshr_miss_latency::total 76634.663342                       # average ReadCleanReq mshr miss latency
system.l2.ReadSharedReq_hits::.cpu.data         15228                       # number of ReadSharedReq hits
system.l2.ReadSharedReq_hits::total             15228                       # number of ReadSharedReq hits
system.l2.ReadSharedReq_misses::.cpu.data         6395                       # number of ReadSharedReq misses
system.l2.ReadSharedReq_misses::total            6395                       # number of ReadSharedReq misses
system.l2.ReadSharedReq_miss_latency::.cpu.data    652529000                       # number of ReadSharedReq miss cycles
system.l2.ReadSharedReq_miss_latency::total    652529000                       # number of ReadSharedReq miss cycles
system.l2.ReadSharedReq_accesses::.cpu.data        21623                       # number of ReadSharedReq accesses(hits+misses)
system.l2.ReadSharedReq_accesses::total         21623                       # number of ReadSharedReq accesses(hits+misses)
system.l2.ReadSharedReq_miss_rate::.cpu.data     0.295750                       # miss rate for ReadSharedReq accesses
system.l2.ReadSharedReq_miss_rate::total     0.295750                       # miss rate for ReadSharedReq accesses
system.l2.ReadSharedReq_avg_miss_latency::.cpu.data 102037.372948                       # average ReadSharedReq miss latency
system.l2.ReadSharedReq_avg_miss_latency::total 102037.372948                       # average ReadSharedReq miss latency
system.l2.ReadSharedReq_mshr_hits::.cpu.data            2                       # number of ReadSharedReq MSHR hits
system.l2.ReadSharedReq_mshr_hits::total            2                       # number of ReadSharedReq MSHR hits
system.l2.ReadSharedReq_mshr_misses::.cpu.data         6393                       # number of ReadSharedReq MSHR misses
system.l2.ReadSharedReq_mshr_misses::total         6393                       # number of ReadSharedReq MSHR misses
system.l2.ReadSharedReq_mshr_miss_latency::.cpu.data    524481000                       # number of ReadSharedReq MSHR miss cycles
system.l2.ReadSharedReq_mshr_miss_latency::total    524481000                       # number of ReadSharedReq MSHR miss cycles
system.l2.ReadSharedReq_mshr_miss_rate::.cpu.data     0.295657                       # mshr miss rate for ReadSharedReq accesses
system.l2.ReadSharedReq_mshr_miss_rate::total     0.295657                       # mshr miss rate for ReadSharedReq accesses
system.l2.ReadSharedReq_avg_mshr_miss_latency::.cpu.data 82039.887377                       # average ReadSharedReq mshr miss latency
system.l2.ReadSharedReq_avg_mshr_miss_latency::total 82039.887377                       # average ReadSharedReq mshr miss latency
system.l2.tags.pwrStateResidencyTicks::UNDEFINED 115266884000                       # Cumulative time (in ticks) in various power states
system.l2.tags.tagsinuse                 54412.817040                       # Cycle average of tags in use
system.l2.tags.total_refs                      180657                       # Total number of references to valid blocks.
system.l2.tags.sampled_refs                     78807                       # Sample count of references to valid blocks.
system.l2.tags.avg_refs                      2.292398                       # Average number of references to valid blocks.
system.l2.tags.warmup_cycle                     87000                       # Cycle when the warmup percentage was hit.
system.l2.tags.occ_blocks::.cpu.inst       799.908721                       # Average occupied blocks per requestor
system.l2.tags.occ_blocks::.cpu.data     53612.908320                       # Average occupied blocks per requestor
system.l2.tags.occ_percent::.cpu.inst        0.006103                       # Average percentage of cache occupancy
system.l2.tags.occ_percent::.cpu.data        0.409034                       # Average percentage of cache occupancy
system.l2.tags.occ_percent::total            0.415137                       # Average percentage of cache occupancy
system.l2.tags.occ_task_id_blocks::1024         78807                       # Occupied blocks per task id
system.l2.tags.age_task_id_blocks_1024::0            4                       # Occupied blocks per task id
system.l2.tags.age_task_id_blocks_1024::1           34                       # Occupied blocks per task id
system.l2.tags.age_task_id_blocks_1024::2          344                       # Occupied blocks per task id
system.l2.tags.age_task_id_blocks_1024::3         3432                       # Occupied blocks per task id
system.l2.tags.age_task_id_blocks_1024::4        74993                       # Occupied blocks per task id
system.l2.tags.occ_task_id_percent::1024     0.601250                       # Percentage of cache occupancy per task id
system.l2.tags.tag_accesses                    259466                       # Number of tag accesses
system.l2.tags.data_accesses                   259466                       # Number of data accesses
system.cpu_voltage_domain.voltage                   1                       # Voltage in Volts
system.mem_ctrls.pwrStateResidencyTicks::UNDEFINED 115266884000                       # Cumulative time (in ticks) in various power states
system.mem_ctrls.bytes_read::.cpu.inst          25664                       # Number of bytes read from this memory
system.mem_ctrls.bytes_read::.cpu.data        2496160                       # Number of bytes read from this memory
system.mem_ctrls.bytes_read::total            2521824                       # Number of bytes read from this memory
system.mem_ctrls.bytes_inst_read::.cpu.inst        25664                       # Number of instructions bytes read from this memory
system.mem_ctrls.bytes_inst_read::total         25664                       # Number of instructions bytes read from this memory
system.mem_ctrls.num_reads::.cpu.inst             802                       # Number of read requests responded to by this memory
system.mem_ctrls.num_reads::.cpu.data           78005                       # Number of read requests responded to by this memory
system.mem_ctrls.num_reads::total               78807                       # Number of read requests responded to by this memory
system.mem_ctrls.bw_read::.cpu.inst            222649                       # Total read bandwidth from this memory (bytes/s)
system.mem_ctrls.bw_read::.cpu.data          21655483                       # Total read bandwidth from this memory (bytes/s)
system.mem_ctrls.bw_read::total              21878131                       # Total read bandwidth from this memory (bytes/s)
system.mem_ctrls.bw_inst_read::.cpu.inst       222649                       # Instruction read bandwidth from this memory (bytes/s)
system.mem_ctrls.bw_inst_read::total           222649                       # Instruction read bandwidth from this memory (bytes/s)
system.mem_ctrls.bw_total::.cpu.inst           222649                       # Total bandwidth to/from this memory (bytes/s)
system.mem_ctrls.bw_total::.cpu.data         21655483                       # Total bandwidth to/from this memory (bytes/s)
system.mem_ctrls.bw_total::total             21878131                       # Total bandwidth to/from this memory (bytes/s)
system.mem_ctrls.avgPriority_.cpu.inst::samples       802.00                       # Average QoS priority value for accepted requests
system.mem_ctrls.avgPriority_.cpu.data::samples     78005.00                       # Average QoS priority value for accepted requests
system.mem_ctrls.priorityMinLatency      0.000000018750                       # per QoS priority minimum request to response latency (s)
system.mem_ctrls.priorityMaxLatency      0.000000619500                       # per QoS priority maximum request to response latency (s)
system.mem_ctrls.numReadWriteTurnArounds            0                       # Number of turnarounds from READ to WRITE
system.mem_ctrls.numWriteReadTurnArounds            0                       # Number of turnarounds from WRITE to READ
system.mem_ctrls.numStayReadState              187099                       # Number of times bus staying in READ state
system.mem_ctrls.numStayWriteState                  0                       # Number of times bus staying in WRITE state
system.mem_ctrls.readReqs                       78807                       # Number of read requests accepted
system.mem_ctrls.writeReqs                          0                       # Number of write requests accepted
system.mem_ctrls.readBursts                     78807                       # Number of DRAM read bursts, including those serviced by the write queue
system.mem_ctrls.writeBursts                        0                       # Number of DRAM write bursts, including those merged in the write queue
system.mem_ctrls.servicedByWrQ                      0                       # Number of DRAM read bursts serviced by the write queue
system.mem_ctrls.mergedWrBursts                     0                       # Number of DRAM write bursts merged with an existing one
system.mem_ctrls.neitherReadNorWriteReqs            0                       # Number of requests that are neither read nor write
system.mem_ctrls.perBankRdBursts::0              4913                       # Per bank write bursts
system.mem_ctrls.perBankRdBursts::1              4683                       # Per bank write bursts
system.mem_ctrls.perBankRdBursts::2              4640                       # Per bank write bursts
system.mem_ctrls.perBankRdBursts::3              5112                       # Per bank write bursts
system.mem_ctrls.perBankRdBursts::4              5267                       # Per bank write bursts
system.mem_ctrls.perBankRdBursts::5              4867                       # Per bank write bursts
system.mem_ctrls.perBankRdBursts::6              4864                       # Per bank write bursts
system.mem_ctrls.perBankRdBursts::7              4910                       # Per bank write bursts
system.mem_ctrls.perBankRdBursts::8              4903                       # Per bank write bursts
system.mem_ctrls.perBankRdBursts::9              4951                       # Per bank write bursts
system.mem_ctrls.perBankRdBursts::10             4923                       # Per bank write bursts
system.mem_ctrls.perBankRdBursts::11             4952                       # Per bank write bursts
system.mem_ctrls.perBankRdBursts::12             4937                       # Per bank write bursts
system.mem_ctrls.perBankRdBursts::13             4897                       # Per bank write bursts
system.mem_ctrls.perBankRdBursts::14             5042                       # Per bank write bursts
system.mem_ctrls.perBankRdBursts::15             4946                       # Per bank write bursts
system.mem_ctrls.perBankWrBursts::0                 0                       # Per bank write bursts
system.mem_ctrls.perBankWrBursts::1                 0                       # Per bank write bursts
system.mem_ctrls.perBankWrBursts::2                 0                       # Per bank write bursts
system.mem_ctrls.perBankWrBursts::3                 0                       # Per bank write bursts
system.mem_ctrls.perBankWrBursts::4                 0                       # Per bank write bursts
system.mem_ctrls.perBankWrBursts::5                 0                       # Per bank write bursts
system.mem_ctrls.perBankWrBursts::6                 0                       # Per bank write bursts
system.mem_ctrls.perBankWrBursts::7                 0                       # Per bank write bursts
system.mem_ctrls.perBankWrBursts::8                 0                       # Per bank write bursts
system.mem_ctrls.perBankWrBursts::9                 0                       # Per bank write bursts
system.mem_ctrls.perBankWrBursts::10                0                       # Per bank write bursts
system.mem_ctrls.perBankWrBursts::11                0                       # Per bank write bursts
system.mem_ctrls.perBankWrBursts::12                0                       # Per bank write bursts
system.mem_ctrls.perBankWrBursts::13                0                       # Per bank write bursts
system.mem_ctrls.perBankWrBursts::14                0                       # Per bank write bursts
system.mem_ctrls.perBankWrBursts::15                0                       # Per bank write bursts
system.mem_ctrls.avgRdQLen                       1.03                       # Average read queue length when enqueuing
system.mem_ctrls.avgWrQLen                       0.00                       # Average write queue length when enqueuing
system.mem_ctrls.totQLat                   1162186750                       # Total ticks spent queuing
system.mem_ctrls.totBusLat                  394035000                       # Total ticks spent in databus transfers
system.mem_ctrls.totMemAccLat              2639818000                       # Total ticks spent from burst creation until serviced by the DRAM
system.mem_ctrls.avgQLat                     14747.25                       # Average queueing delay per DRAM burst
system.mem_ctrls.avgBusLat                    5000.00                       # Average bus latency per DRAM burst
system.mem_ctrls.avgMemAccLat                33497.25                       # Average memory access latency per DRAM burst
system.mem_ctrls.numRdRetry                         0                       # Number of times read queue was full causing retry
system.mem_ctrls.numWrRetry                         0                       # Number of times write queue was full causing retry
system.mem_ctrls.readRowHits                    57968                       # Number of row buffer hits during reads
system.mem_ctrls.writeRowHits                       0                       # Number of row buffer hits during writes
system.mem_ctrls.readRowHitRate                 73.56                       # Row buffer hit rate for reads
system.mem_ctrls.writeRowHitRate                  nan                       # Row buffer hit rate for writes
system.mem_ctrls.readPktSize::0                     0                       # Read request sizes (log2)
system.mem_ctrls.readPktSize::1                     0                       # Read request sizes (log2)
system.mem_ctrls.readPktSize::2                     0                       # Read request sizes (log2)
system.mem_ctrls.readPktSize::3                     0                       # Read request sizes (log2)
system.mem_ctrls.readPktSize::4                     0                       # Read request sizes (log2)
system.mem_ctrls.readPktSize::5                 78807                       # Read request sizes (log2)
system.mem_ctrls.readPktSize::6                     0                       # Read request sizes (log2)
system.mem_ctrls.writePktSize::0                    0                       # Write request sizes (log2)
system.mem_ctrls.writePktSize::1                    0                       # Write request sizes (log2)
system.mem_ctrls.writePktSize::2                    0                       # Write request sizes (log2)
system.mem_ctrls.writePktSize::3                    0                       # Write request sizes (log2)
system.mem_ctrls.writePktSize::4                    0                       # Write request sizes (log2)
system.mem_ctrls.writePktSize::5                    0                       # Write request sizes (log2)
system.mem_ctrls.writePktSize::6                    0                       # Write request sizes (log2)
system.mem_ctrls.rdQLenPdf::0                   70568                       # What read queue length does an incoming req see
system.mem_ctrls.rdQLenPdf::1                    8229                       # What read queue length does an incoming req see
system.mem_ctrls.rdQLenPdf::2                      10                       # What read queue length does an incoming req see
system.mem_ctrls.rdQLenPdf::3                       0                       # What read queue length does an incoming req see
system.mem_ctrls.rdQLenPdf::4                       0                       # What read queue length does an incoming req see
system.mem_ctrls.rdQLenPdf::5                       0                       # What read queue length does an incoming req see
system.mem_ctrls.rdQLenPdf::6                       0                       # What read queue length does an incoming req see
system.mem_ctrls.rdQLenPdf::7                       0                       # What read queue length does an incoming req see
system.mem_ctrls.rdQLenPdf::8                       0                       # What read queue length does an incoming req see
system.mem_ctrls.rdQLenPdf::9                       0                       # What read queue length does an incoming req see
system.mem_ctrls.rdQLenPdf::10                      0                       # What read queue length does an incoming req see
system.mem_ctrls.rdQLenPdf::11                      0                       # What read queue length does an incoming req see
system.mem_ctrls.rdQLenPdf::12                      0                       # What read queue length does an incoming req see
system.mem_ctrls.rdQLenPdf::13                      0                       # What read queue length does an incoming req see
system.mem_ctrls.rdQLenPdf::14                      0                       # What read queue length does an incoming req see
system.mem_ctrls.rdQLenPdf::15                      0                       # What read queue length does an incoming req see
system.mem_ctrls.rdQLenPdf::16                      0                       # What read queue length does an incoming req see
system.mem_ctrls.rdQLenPdf::17                      0                       # What read queue length does an incoming req see
system.mem_ctrls.rdQLenPdf::18                      0                       # What read queue length does an incoming req see
system.mem_ctrls.rdQLenPdf::19                      0                       # What read queue length does an incoming req see
system.mem_ctrls.rdQLenPdf::20                      0                       # What read queue length does an incoming req see
system.mem_ctrls.rdQLenPdf::21                      0                       # What read queue length does an incoming req see
system.mem_ctrls.rdQLenPdf::22                      0                       # What read queue length does an incoming req see
system.mem_ctrls.rdQLenPdf::23                      0                       # What read queue length does an incoming req see
system.mem_ctrls.rdQLenPdf::24                      0                       # What read queue length does an incoming req see
system.mem_ctrls.rdQLenPdf::25                      0                       # What read queue length does an incoming req see
system.mem_ctrls.rdQLenPdf::26                      0                       # What read queue length does an incoming req see
system.mem_ctrls.rdQLenPdf::27                      0                       # What read queue length does an incoming req see
system.mem_ctrls.rdQLenPdf::28                      0                       # What read queue length does an incoming req see
system.mem_ctrls.rdQLenPdf::29                      0                       # What read queue length does an incoming req see
system.mem_ctrls.rdQLenPdf::30                      0                       # What read queue length does an incoming req see
system.mem_ctrls.rdQLenPdf::31                      0                       # What read queue length does an incoming req see
system.mem_ctrls.wrQLenPdf::0                       0                       # What write queue length does an incoming req see
system.mem_ctrls.wrQLenPdf::1                       0                       # What write queue length does an incoming req see
system.mem_ctrls.wrQLenPdf::2                       0                       # What write queue length does an incoming req see
system.mem_ctrls.wrQLenPdf::3                       0                       # What write queue length does an incoming req see
system.mem_ctrls.wrQLenPdf::4                       0                       # What write queue length does an incoming req see
system.mem_ctrls.wrQLenPdf::5                       0                       # What write queue length does an incoming req see
system.mem_ctrls.wrQLenPdf::6                       0                       # What write queue length does an incoming req see
system.mem_ctrls.wrQLenPdf::7                       0                       # What write queue length does an incoming req see
system.mem_ctrls.wrQLenPdf::8                       0                       # What write queue length does an incoming req see
system.mem_ctrls.wrQLenPdf::9                       0                       # What write queue length does an incoming req see
system.mem_ctrls.wrQLenPdf::10                      0                       # What write queue length does an incoming req see
system.mem_ctrls.wrQLenPdf::11                      0                       # What write queue length does an incoming req see
system.mem_ctrls.wrQLenPdf::12                      0                       # What write queue length does an incoming req see
system.mem_ctrls.wrQLenPdf::13                      0                       # What write queue length does an incoming req see
system.mem_ctrls.wrQLenPdf::14                      0                       # What write queue length does an incoming req see
system.mem_ctrls.wrQLenPdf::15                      0                       # What write queue length does an incoming req see
system.mem_ctrls.wrQLenPdf::16                      0                       # What write queue length does an incoming req see
system.mem_ctrls.wrQLenPdf::17                      0                       # What write queue length does an incoming req see
system.mem_ctrls.wrQLenPdf::18                      0                       # What write queue length does an incoming req see
system.mem_ctrls.wrQLenPdf::19                      0                       # What write queue length does an incoming req see
system.mem_ctrls.wrQLenPdf::20                      0                       # What write queue length does an incoming req see
system.mem_ctrls.wrQLenPdf::21                      0                       # What write queue length does an incoming req see
system.mem_ctrls.wrQLenPdf::22                      0                       # What write queue length does an incoming req see
system.mem_ctrls.wrQLenPdf::23                      0                       # What write queue length does an incoming req see
system.mem_ctrls.wrQLenPdf::24                      0                       # What write queue length does an incoming req see
system.mem_ctrls.wrQLenPdf::25                      0                       # What write queue length does an incoming req see
system.mem_ctrls.wrQLenPdf::26                      0                       # What write queue length does an incoming req see
system.mem_ctrls.wrQLenPdf::27                      0                       # What write queue length does an incoming req see
system.mem_ctrls.wrQLenPdf::28                      0                       # What write queue length does an incoming req see
system.mem_ctrls.wrQLenPdf::29                      0                       # What write queue length does an incoming req see
system.mem_ctrls.wrQLenPdf::30                      0                       # What write queue length does an incoming req see
system.mem_ctrls.wrQLenPdf::31                      0                       # What write queue length does an incoming req see
system.mem_ctrls.wrQLenPdf::32                      0                       # What write queue length does an incoming req see
system.mem_ctrls.wrQLenPdf::33                      0                       # What write queue length does an incoming req see
system.mem_ctrls.wrQLenPdf::34                      0                       # What write queue length does an incoming req see
system.mem_ctrls.wrQLenPdf::35                      0                       # What write queue length does an incoming req see
system.mem_ctrls.wrQLenPdf::36                      0                       # What write queue length does an incoming req see
system.mem_ctrls.wrQLenPdf::37                      0                       # What write queue length does an incoming req see
system.mem_ctrls.wrQLenPdf::38                      0                       # What write queue length does an incoming req see
system.mem_ctrls.wrQLenPdf::39                      0                       # What write queue length does an incoming req see
system.mem_ctrls.wrQLenPdf::40                      0                       # What write queue length does an incoming req see
system.mem_ctrls.wrQLenPdf::41                      0                       # What write queue length does an incoming req see
system.mem_ctrls.wrQLenPdf::42                      0                       # What write queue length does an incoming req see
system.mem_ctrls.wrQLenPdf::43                      0                       # What write queue length does an incoming req see
system.mem_ctrls.wrQLenPdf::44                      0                       # What write queue length does an incoming req see
system.mem_ctrls.wrQLenPdf::45                      0                       # What write queue length does an incoming req see
system.mem_ctrls.wrQLenPdf::46                      0                       # What write queue length does an incoming req see
system.mem_ctrls.wrQLenPdf::47                      0                       # What write queue length does an incoming req see
system.mem_ctrls.wrQLenPdf::48                      0                       # What write queue length does an incoming req see
system.mem_ctrls.wrQLenPdf::49                      0                       # What write queue length does an incoming req see
system.mem_ctrls.wrQLenPdf::50                      0                       # What write queue length does an incoming req see
system.mem_ctrls.wrQLenPdf::51                      0                       # What write queue length does an incoming req see
system.mem_ctrls.wrQLenPdf::52                      0                       # What write queue length does an incoming req see
system.mem_ctrls.wrQLenPdf::53                      0                       # What write queue length does an incoming req see
system.mem_ctrls.wrQLenPdf::54                      0                       # What write queue length does an incoming req see
system.mem_ctrls.wrQLenPdf::55                      0                       # What write queue length does an incoming req see
system.mem_ctrls.wrQLenPdf::56                      0                       # What write queue length does an incoming req see
system.mem_ctrls.wrQLenPdf::57                      0                       # What write queue length does an incoming req see
system.mem_ctrls.wrQLenPdf::58                      0                       # What write queue length does an incoming req see
system.mem_ctrls.wrQLenPdf::59                      0                       # What write queue length does an incoming req see
system.mem_ctrls.wrQLenPdf::60                      0                       # What write queue length does an incoming req see
system.mem_ctrls.wrQLenPdf::61                      0                       # What write queue length does an incoming req see
system.mem_ctrls.wrQLenPdf::62                      0                       # What write queue length does an incoming req see
system.mem_ctrls.wrQLenPdf::63                      0                       # What write queue length does an incoming req see
system.mem_ctrls.bytesPerActivate::samples        20838                       # Bytes accessed per row activation
system.mem_ctrls.bytesPerActivate::mean    242.031673                       # Bytes accessed per row activation
system.mem_ctrls.bytesPerActivate::gmean   213.172897                       # Bytes accessed per row activation
system.mem_ctrls.bytesPerActivate::stdev   132.397560                       # Bytes accessed per row activation
system.mem_ctrls.bytesPerActivate::0-127         1522      7.30%      7.30% # Bytes accessed per row activation
system.mem_ctrls.bytesPerActivate::128-255        13610     65.31%     72.62% # Bytes accessed per row activation
system.mem_ctrls.bytesPerActivate::256-383         2579     12.38%     84.99% # Bytes accessed per row activation
system.mem_ctrls.bytesPerActivate::384-511         1381      6.63%     91.62% # Bytes accessed per row activation
system.mem_ctrls.bytesPerActivate::512-639         1400      6.72%     98.34% # Bytes accessed per row activation
system.mem_ctrls.bytesPerActivate::640-767          277      1.33%     99.67% # Bytes accessed per row activation
system.mem_ctrls.bytesPerActivate::768-895           42      0.20%     99.87% # Bytes accessed per row activation
system.mem_ctrls.bytesPerActivate::896-1023            7      0.03%     99.90% # Bytes accessed per row activation
system.mem_ctrls.bytesPerActivate::1024-1151           20      0.10%    100.00% # Bytes accessed per row activation
system.mem_ctrls.bytesPerActivate::total        20838                       # Bytes accessed per row activation
system.mem_ctrls.bytesReadDRAM                5043648                       # Total number of bytes read from DRAM
system.mem_ctrls.bytesReadWrQ                       0                       # Total number of bytes read from write queue
system.mem_ctrls.bytesWritten                       0                       # Total number of bytes written to DRAM
system.mem_ctrls.bytesReadSys                 2521824                       # Total read bytes from the system interface side
system.mem_ctrls.bytesWrittenSys                    0                       # Total written bytes from the system interface side
system.mem_ctrls.avgRdBW                        43.76                       # Average DRAM read bandwidth in MiByte/s
system.mem_ctrls.avgWrBW                         0.00                       # Average achieved write bandwidth in MiByte/s
system.mem_ctrls.avgRdBWSys                     21.88                       # Average system read bandwidth in MiByte/s
system.mem_ctrls.avgWrBWSys                      0.00                       # Average system write bandwidth in MiByte/s
system.mem_ctrls.peakBW                      12800.00                       # Theoretical peak bandwidth in MiByte/s
system.mem_ctrls.busUtil                         0.34                       # Data bus utilization in percentage
system.mem_ctrls.busUtilRead                     0.34                       # Data bus utilization in percentage for reads
system.mem_ctrls.busUtilWrite                    0.00                       # Data bus utilization in percentage for writes
system.mem_ctrls.totGap                  115265749000                       # Total gap between requests
system.mem_ctrls.avgGap                    1462633.38                       # Average gap between requests
system.mem_ctrls.masterReadBytes::.cpu.inst        25664                       # Per-master bytes read from memory
system.mem_ctrls.masterReadBytes::.cpu.data      2496160                       # Per-master bytes read from memory
system.mem_ctrls.masterReadRate::.cpu.inst 222648.510217383853                       # Per-master bytes read from memory rate (Bytes/sec)
system.mem_ctrls.masterReadRate::.cpu.data 21655482.592901531607                       # Per-master bytes read from memory rate (Bytes/sec)
system.mem_ctrls.masterReadAccesses::.cpu.inst          802                       # Per-master read serviced memory accesses
system.mem_ctrls.masterReadAccesses::.cpu.data        78005                       # Per-master read serviced memory accesses
system.mem_ctrls.masterReadTotalLat::.cpu.inst     20314500                       # Per-master read total memory access latency
system.mem_ctrls.masterReadTotalLat::.cpu.data   2619503500                       # Per-master read total memory access latency
system.mem_ctrls.masterReadAvgLat::.cpu.inst     25329.80                       # Per-master read average memory access latency
system.mem_ctrls.masterReadAvgLat::.cpu.data     33581.23                       # Per-master read average memory access latency
system.mem_ctrls.pageHitRate                    73.56                       # Row buffer hit rate, read and write combined
system.mem_ctrls.rank1.actEnergy             74705820                       # Energy for activate commands per rank (pJ)
system.mem_ctrls.rank1.preEnergy             39707085                       # Energy for precharge commands per rank (pJ)
system.mem_ctrls.rank1.readEnergy           282394140                       # Energy for read commands per rank (pJ)
system.mem_ctrls.rank1.writeEnergy                  0                       # Energy for write commands per rank (pJ)
system.mem_ctrls.rank1.refreshEnergy     9098515920.000002                       # Energy for refresh commands per rank (pJ)
system.mem_ctrls.rank1.actBackEnergy      28918577790                       # Energy for active background per rank (pJ)
[...]
system.cpu.icache.tags.occ_percent::total     0.098743                       # Average percentage of cache occupancy
system.cpu.icache.tags.occ_task_id_blocks::1024          811                       # Occupied blocks per task id
system.cpu.icache.tags.age_task_id_blocks_1024::4          811                       # Occupied blocks per task id
system.cpu.icache.tags.occ_task_id_percent::1024     0.098999                       # Percentage of cache occupancy per task id
system.cpu.icache.tags.tag_accesses          31032395                       # Number of tag accesses
system.cpu.icache.tags.data_accesses         31032395                       # Number of data accesses
system.cpu.dtb.walker.pwrStateResidencyTicks::UNDEFINED 115266884000                       # Cumulative time (in ticks) in various power states
system.cpu.dtb.stage2_mmu.stage2_tlb.walker.pwrStateResidencyTicks::UNDEFINED 115266884000                       # Cumulative time (in ticks) in various power states
system.cpu.dcache.pwrStateResidencyTicks::UNDEFINED 115266884000                       # Cumulative time (in ticks) in various power states
system.cpu.dcache.demand_hits::.cpu.data     35763048                       # number of demand (read+write) hits
system.cpu.dcache.demand_hits::total         35763048                       # number of demand (read+write) hits
system.cpu.dcache.overall_hits::.cpu.data     35766375                       # number of overall hits
system.cpu.dcache.overall_hits::total        35766375                       # number of overall hits
system.cpu.dcache.demand_misses::.cpu.data       114674                       # number of demand (read+write) misses
system.cpu.dcache.demand_misses::total         114674                       # number of demand (read+write) misses
system.cpu.dcache.overall_misses::.cpu.data       114708                       # number of overall misses
system.cpu.dcache.overall_misses::total        114708                       # number of overall misses
system.cpu.dcache.demand_miss_latency::.cpu.data  10271015000                       # number of demand (read+write) miss cycles
system.cpu.dcache.demand_miss_latency::total  10271015000                       # number of demand (read+write) miss cycles
system.cpu.dcache.overall_miss_latency::.cpu.data  10271015000                       # number of overall miss cycles
system.cpu.dcache.overall_miss_latency::total  10271015000                       # number of overall miss cycles
system.cpu.dcache.demand_accesses::.cpu.data     35877722                       # number of demand (read+write) accesses
system.cpu.dcache.demand_accesses::total     35877722                       # number of demand (read+write) accesses
system.cpu.dcache.overall_accesses::.cpu.data     35881083                       # number of overall (read+write) accesses
system.cpu.dcache.overall_accesses::total     35881083                       # number of overall (read+write) accesses
system.cpu.dcache.demand_miss_rate::.cpu.data     0.003196                       # miss rate for demand accesses
system.cpu.dcache.demand_miss_rate::total     0.003196                       # miss rate for demand accesses
system.cpu.dcache.overall_miss_rate::.cpu.data     0.003197                       # miss rate for overall accesses
system.cpu.dcache.overall_miss_rate::total     0.003197                       # miss rate for overall accesses
system.cpu.dcache.demand_avg_miss_latency::.cpu.data 89567.077106                       # average overall miss latency
system.cpu.dcache.demand_avg_miss_latency::total 89567.077106                       # average overall miss latency
system.cpu.dcache.overall_avg_miss_latency::.cpu.data 89540.528995                       # average overall miss latency
system.cpu.dcache.overall_avg_miss_latency::total 89540.528995                       # average overall miss latency
system.cpu.dcache.blocked_cycles::no_mshrs            0                       # number of cycles access was blocked
system.cpu.dcache.blocked_cycles::no_targets            0                       # number of cycles access was blocked
system.cpu.dcache.blocked::no_mshrs                 0                       # number of cycles access was blocked
system.cpu.dcache.blocked::no_targets               0                       # number of cycles access was blocked
system.cpu.dcache.avg_blocked_cycles::no_mshrs          nan                       # average number of cycles each access was blocked
system.cpu.dcache.avg_blocked_cycles::no_targets          nan                       # average number of cycles each access was blocked
system.cpu.dcache.writebacks::.writebacks        82003                       # number of writebacks
system.cpu.dcache.writebacks::total             82003                       # number of writebacks
system.cpu.dcache.demand_mshr_hits::.cpu.data        20522                       # number of demand (read+write) MSHR hits
system.cpu.dcache.demand_mshr_hits::total        20522                       # number of demand (read+write) MSHR hits
system.cpu.dcache.overall_mshr_hits::.cpu.data        20522                       # number of overall MSHR hits
system.cpu.dcache.overall_mshr_hits::total        20522                       # number of overall MSHR hits
system.cpu.dcache.demand_mshr_misses::.cpu.data        94152                       # number of demand (read+write) MSHR misses
system.cpu.dcache.demand_mshr_misses::total        94152                       # number of demand (read+write) MSHR misses
system.cpu.dcache.overall_mshr_misses::.cpu.data        94186                       # number of overall MSHR misses
system.cpu.dcache.overall_mshr_misses::total        94186                       # number of overall MSHR misses
system.cpu.dcache.demand_mshr_miss_latency::.cpu.data   8809081000                       # number of demand (read+write) MSHR miss cycles
system.cpu.dcache.demand_mshr_miss_latency::total   8809081000                       # number of demand (read+write) MSHR miss cycles
system.cpu.dcache.overall_mshr_miss_latency::.cpu.data   8811659000                       # number of overall MSHR miss cycles
system.cpu.dcache.overall_mshr_miss_latency::total   8811659000                       # number of overall MSHR miss cycles
system.cpu.dcache.demand_mshr_miss_rate::.cpu.data     0.002624                       # mshr miss rate for demand accesses
system.cpu.dcache.demand_mshr_miss_rate::total     0.002624                       # mshr miss rate for demand accesses
system.cpu.dcache.overall_mshr_miss_rate::.cpu.data     0.002625                       # mshr miss rate for overall accesses
system.cpu.dcache.overall_mshr_miss_rate::total     0.002625                       # mshr miss rate for overall accesses
system.cpu.dcache.demand_avg_mshr_miss_latency::.cpu.data 93562.335373                       # average overall mshr miss latency
system.cpu.dcache.demand_avg_mshr_miss_latency::total 93562.335373                       # average overall mshr miss latency
system.cpu.dcache.overall_avg_mshr_miss_latency::.cpu.data 93555.931879                       # average overall mshr miss latency
system.cpu.dcache.overall_avg_mshr_miss_latency::total 93555.931879                       # average overall mshr miss latency
system.cpu.dcache.replacements                  85995                       # number of replacements
system.cpu.dcache.ReadReq_hits::.cpu.data     21553540                       # number of ReadReq hits
system.cpu.dcache.ReadReq_hits::total        21553540                       # number of ReadReq hits
system.cpu.dcache.ReadReq_misses::.cpu.data        24883                       # number of ReadReq misses
system.cpu.dcache.ReadReq_misses::total         24883                       # number of ReadReq misses
system.cpu.dcache.ReadReq_miss_latency::.cpu.data   1190400000                       # number of ReadReq miss cycles
system.cpu.dcache.ReadReq_miss_latency::total   1190400000                       # number of ReadReq miss cycles
system.cpu.dcache.ReadReq_accesses::.cpu.data     21578423                       # number of ReadReq accesses(hits+misses)
system.cpu.dcache.ReadReq_accesses::total     21578423                       # number of ReadReq accesses(hits+misses)
system.cpu.dcache.ReadReq_miss_rate::.cpu.data     0.001153                       # miss rate for ReadReq accesses
system.cpu.dcache.ReadReq_miss_rate::total     0.001153                       # miss rate for ReadReq accesses
system.cpu.dcache.ReadReq_avg_miss_latency::.cpu.data 47839.890688                       # average ReadReq miss latency
system.cpu.dcache.ReadReq_avg_miss_latency::total 47839.890688                       # average ReadReq miss latency
system.cpu.dcache.ReadReq_mshr_hits::.cpu.data         3295                       # number of ReadReq MSHR hits
system.cpu.dcache.ReadReq_mshr_hits::total         3295                       # number of ReadReq MSHR hits
system.cpu.dcache.ReadReq_mshr_misses::.cpu.data        21588                       # number of ReadReq MSHR misses
system.cpu.dcache.ReadReq_mshr_misses::total        21588                       # number of ReadReq MSHR misses
system.cpu.dcache.ReadReq_mshr_miss_latency::.cpu.data   1038404000                       # number of ReadReq MSHR miss cycles
system.cpu.dcache.ReadReq_mshr_miss_latency::total   1038404000                       # number of ReadReq MSHR miss cycles
system.cpu.dcache.ReadReq_mshr_miss_rate::.cpu.data     0.001000                       # mshr miss rate for ReadReq accesses
system.cpu.dcache.ReadReq_mshr_miss_rate::total     0.001000                       # mshr miss rate for ReadReq accesses
system.cpu.dcache.ReadReq_avg_mshr_miss_latency::.cpu.data 48100.982027                       # average ReadReq mshr miss latency
system.cpu.dcache.ReadReq_avg_mshr_miss_latency::total 48100.982027                       # average ReadReq mshr miss latency
system.cpu.dcache.WriteReq_hits::.cpu.data     14209508                       # number of WriteReq hits
system.cpu.dcache.WriteReq_hits::total       14209508                       # number of WriteReq hits
system.cpu.dcache.WriteReq_misses::.cpu.data        89791                       # number of WriteReq misses
system.cpu.dcache.WriteReq_misses::total        89791                       # number of WriteReq misses
system.cpu.dcache.WriteReq_miss_latency::.cpu.data   9080615000                       # number of WriteReq miss cycles
system.cpu.dcache.WriteReq_miss_latency::total   9080615000                       # number of WriteReq miss cycles
system.cpu.dcache.WriteReq_accesses::.cpu.data     14299299                       # number of WriteReq accesses(hits+misses)
system.cpu.dcache.WriteReq_accesses::total     14299299                       # number of WriteReq accesses(hits+misses)
system.cpu.dcache.WriteReq_miss_rate::.cpu.data     0.006279                       # miss rate for WriteReq accesses
system.cpu.dcache.WriteReq_miss_rate::total     0.006279                       # miss rate for WriteReq accesses
system.cpu.dcache.WriteReq_avg_miss_latency::.cpu.data 101130.569879                       # average WriteReq miss latency
system.cpu.dcache.WriteReq_avg_miss_latency::total 101130.569879                       # average WriteReq miss latency
system.cpu.dcache.WriteReq_mshr_hits::.cpu.data        17227                       # number of WriteReq MSHR hits
system.cpu.dcache.WriteReq_mshr_hits::total        17227                       # number of WriteReq MSHR hits
system.cpu.dcache.WriteReq_mshr_misses::.cpu.data        72564                       # number of WriteReq MSHR misses
system.cpu.dcache.WriteReq_mshr_misses::total        72564                       # number of WriteReq MSHR misses
system.cpu.dcache.WriteReq_mshr_miss_latency::.cpu.data   7770677000                       # number of WriteReq MSHR miss cycles
system.cpu.dcache.WriteReq_mshr_miss_latency::total   7770677000                       # number of WriteReq MSHR miss cycles
system.cpu.dcache.WriteReq_mshr_miss_rate::.cpu.data     0.005075                       # mshr miss rate for WriteReq accesses
system.cpu.dcache.WriteReq_mshr_miss_rate::total     0.005075                       # mshr miss rate for WriteReq accesses
system.cpu.dcache.WriteReq_avg_mshr_miss_latency::.cpu.data 107087.219558                       # average WriteReq mshr miss latency
system.cpu.dcache.WriteReq_avg_mshr_miss_latency::total 107087.219558                       # average WriteReq mshr miss latency
system.cpu.dcache.SoftPFReq_hits::.cpu.data         3327                       # number of SoftPFReq hits
system.cpu.dcache.SoftPFReq_hits::total          3327                       # number of SoftPFReq hits
system.cpu.dcache.SoftPFReq_misses::.cpu.data           34                       # number of SoftPFReq misses
system.cpu.dcache.SoftPFReq_misses::total           34                       # number of SoftPFReq misses
system.cpu.dcache.SoftPFReq_accesses::.cpu.data         3361                       # number of SoftPFReq accesses(hits+misses)
system.cpu.dcache.SoftPFReq_accesses::total         3361                       # number of SoftPFReq accesses(hits+misses)
system.cpu.dcache.SoftPFReq_miss_rate::.cpu.data     0.010116                       # miss rate for SoftPFReq accesses
system.cpu.dcache.SoftPFReq_miss_rate::total     0.010116                       # miss rate for SoftPFReq accesses
system.cpu.dcache.SoftPFReq_mshr_misses::.cpu.data           34                       # number of SoftPFReq MSHR misses
system.cpu.dcache.SoftPFReq_mshr_misses::total           34                       # number of SoftPFReq MSHR misses
system.cpu.dcache.SoftPFReq_mshr_miss_latency::.cpu.data      2578000                       # number of SoftPFReq MSHR miss cycles
system.cpu.dcache.SoftPFReq_mshr_miss_latency::total      2578000                       # number of SoftPFReq MSHR miss cycles
system.cpu.dcache.SoftPFReq_mshr_miss_rate::.cpu.data     0.010116                       # mshr miss rate for SoftPFReq accesses
system.cpu.dcache.SoftPFReq_mshr_miss_rate::total     0.010116                       # mshr miss rate for SoftPFReq accesses
system.cpu.dcache.SoftPFReq_avg_mshr_miss_latency::.cpu.data 75823.529412                       # average SoftPFReq mshr miss latency
system.cpu.dcache.SoftPFReq_avg_mshr_miss_latency::total 75823.529412                       # average SoftPFReq mshr miss latency
system.cpu.dcache.LoadLockedReq_hits::.cpu.data        89081                       # number of LoadLockedReq hits
system.cpu.dcache.LoadLockedReq_hits::total        89081                       # number of LoadLockedReq hits
system.cpu.dcache.LoadLockedReq_misses::.cpu.data            1                       # number of LoadLockedReq misses
system.cpu.dcache.LoadLockedReq_misses::total            1                       # number of LoadLockedReq misses
system.cpu.dcache.LoadLockedReq_miss_latency::.cpu.data       123000                       # number of LoadLockedReq miss cycles
system.cpu.dcache.LoadLockedReq_miss_latency::total       123000                       # number of LoadLockedReq miss cycles
system.cpu.dcache.LoadLockedReq_accesses::.cpu.data        89082                       # number of LoadLockedReq accesses(hits+misses)
system.cpu.dcache.LoadLockedReq_accesses::total        89082                       # number of LoadLockedReq accesses(hits+misses)
system.cpu.dcache.LoadLockedReq_miss_rate::.cpu.data     0.000011                       # miss rate for LoadLockedReq accesses
system.cpu.dcache.LoadLockedReq_miss_rate::total     0.000011                       # miss rate for LoadLockedReq accesses
system.cpu.dcache.LoadLockedReq_avg_miss_latency::.cpu.data       123000                       # average LoadLockedReq miss latency
system.cpu.dcache.LoadLockedReq_avg_miss_latency::total       123000                       # average LoadLockedReq miss latency
system.cpu.dcache.LoadLockedReq_mshr_misses::.cpu.data            1                       # number of LoadLockedReq MSHR misses
system.cpu.dcache.LoadLockedReq_mshr_misses::total            1                       # number of LoadLockedReq MSHR misses
system.cpu.dcache.LoadLockedReq_mshr_miss_latency::.cpu.data       121000                       # number of LoadLockedReq MSHR miss cycles
system.cpu.dcache.LoadLockedReq_mshr_miss_latency::total       121000                       # number of LoadLockedReq MSHR miss cycles
system.cpu.dcache.LoadLockedReq_mshr_miss_rate::.cpu.data     0.000011                       # mshr miss rate for LoadLockedReq accesses
system.cpu.dcache.LoadLockedReq_mshr_miss_rate::total     0.000011                       # mshr miss rate for LoadLockedReq accesses
system.cpu.dcache.LoadLockedReq_avg_mshr_miss_latency::.cpu.data       121000                       # average LoadLockedReq mshr miss latency
system.cpu.dcache.LoadLockedReq_avg_mshr_miss_latency::total       121000                       # average LoadLockedReq mshr miss latency
system.cpu.dcache.StoreCondReq_hits::.cpu.data        89082                       # number of StoreCondReq hits
system.cpu.dcache.StoreCondReq_hits::total        89082                       # number of StoreCondReq hits
system.cpu.dcache.StoreCondReq_accesses::.cpu.data        89082                       # number of StoreCondReq accesses(hits+misses)
system.cpu.dcache.StoreCondReq_accesses::total        89082                       # number of StoreCondReq accesses(hits+misses)
system.cpu.dcache.tags.pwrStateResidencyTicks::UNDEFINED 115266884000                       # Cumulative time (in ticks) in various power states
system.cpu.dcache.tags.tagsinuse          7985.469790                       # Cycle average of tags in use
system.cpu.dcache.tags.total_refs            36038725                       # Total number of references to valid blocks.
system.cpu.dcache.tags.sampled_refs             94187                       # Sample count of references to valid blocks.
system.cpu.dcache.tags.avg_refs            382.629503                       # Average number of references to valid blocks.
system.cpu.dcache.tags.warmup_cycle            240000                       # Cycle when the warmup percentage was hit.
system.cpu.dcache.tags.occ_blocks::.cpu.data  7985.469790                       # Average occupied blocks per requestor
system.cpu.dcache.tags.occ_percent::.cpu.data     0.974789                       # Average percentage of cache occupancy
system.cpu.dcache.tags.occ_percent::total     0.974789                       # Average percentage of cache occupancy
system.cpu.dcache.tags.occ_task_id_blocks::1024         8192                       # Occupied blocks per task id
system.cpu.dcache.tags.age_task_id_blocks_1024::0            4                       # Occupied blocks per task id
system.cpu.dcache.tags.age_task_id_blocks_1024::1           37                       # Occupied blocks per task id
system.cpu.dcache.tags.age_task_id_blocks_1024::2          422                       # Occupied blocks per task id
system.cpu.dcache.tags.age_task_id_blocks_1024::3         3935                       # Occupied blocks per task id
system.cpu.dcache.tags.age_task_id_blocks_1024::4         3794                       # Occupied blocks per task id
system.cpu.dcache.tags.occ_task_id_percent::1024            1                       # Percentage of cache occupancy per task id
system.cpu.dcache.tags.tag_accesses          36153434                       # Number of tag accesses
system.cpu.dcache.tags.data_accesses         36153434                       # Number of data accesses
system.cpu.itb.walker.pwrStateResidencyTicks::UNDEFINED 115266884000                       # Cumulative time (in ticks) in various power states
system.cpu.itb.stage2_mmu.stage2_tlb.walker.pwrStateResidencyTicks::UNDEFINED 115266884000                       # Cumulative time (in ticks) in various power states

---------- End Simulation Statistics   ----------
