
---------- Begin Simulation Statistics ----------
final_tick                               706012089000                       # Number of ticks from beginning of simulation (restored from checkpoints and never reset)
host_inst_rate                                 114638                       # Simulator instruction rate (inst/s)
host_mem_usage                                 689980                       # Number of bytes of host memory used
host_op_rate                                   211134                       # Simulator op (including micro ops) rate (op/s)
host_seconds                                   872.31                       # Real time elapsed on the host
host_tick_rate                              809358593                       # Simulator tick rate (ticks/s)
sim_freq                                 1000000000000                       # Frequency of simulated ticks
sim_insts                                   100000000                       # Number of instructions simulated
sim_ops                                     184174839                       # Number of ops (including micro ops) simulated
sim_seconds                                  0.706012                       # Number of seconds simulated
sim_ticks                                706012089000                       # Number of ticks simulated
system.cpu.branchPred.BTBCorrect                    0                       # Number of correct BTB predictions (this stat may not work properly.
system.cpu.branchPred.BTBHitPct             99.957125                       # BTB Hit Percentage
system.cpu.branchPred.BTBHits                10561006                       # Number of BTB hits
system.cpu.branchPred.BTBLookups             10565536                       # Number of BTB lookups
system.cpu.branchPred.RASInCorrect                  5                       # Number of incorrect RAS predictions.
system.cpu.branchPred.condIncorrect              1457                       # Number of conditional branches incorrect
system.cpu.branchPred.condPredicted          10562053                       # Number of conditional branches predicted
system.cpu.branchPred.indirectHits                 27                       # Number of indirect target hits.
system.cpu.branchPred.indirectLookups             193                       # Number of indirect predictor lookups.
system.cpu.branchPred.indirectMisses              166                       # Number of indirect misses.
system.cpu.branchPred.lookups                10570230                       # Number of BP lookups
system.cpu.branchPred.usedRAS                    2720                       # Number of times the RAS was used to get a target.
system.cpu.branchPredindirectMispredicted           99                       # Number of mispredicted indirect branches.
system.cpu.committedInsts                   100000000                       # Number of instructions committed
system.cpu.committedOps                     184174839                       # Number of ops (including micro ops) committed
system.cpu.cpi                               7.060121                       # CPI: cycles per instruction
system.cpu.discardedOps                          4289                       # Number of ops (including micro ops) which were discarded before commit
system.cpu.dtb.accesses                             0                       # DTB accesses
system.cpu.dtb.align_faults                         0                       # Number of TLB faults due to alignment restrictions
system.cpu.dtb.domain_faults                        0                       # Number of TLB faults due to domain restrictions
system.cpu.dtb.flush_entries                        0                       # Number of entries that have been flushed from TLB
system.cpu.dtb.flush_tlb                            0                       # Number of times complete TLB was flushed
system.cpu.dtb.flush_tlb_asid                       0                       # Number of times TLB was flushed by ASID
system.cpu.dtb.flush_tlb_mva                        0                       # Number of times TLB was flushed by MVA
system.cpu.dtb.flush_tlb_mva_asid                   0                       # Number of times TLB was flushed by MVA & ASID
system.cpu.dtb.hits                                 0                       # DTB hits
system.cpu.dtb.inst_accesses                        0                       # ITB inst accesses
system.cpu.dtb.inst_hits                            0                       # ITB inst hits
system.cpu.dtb.inst_misses                          0                       # ITB inst misses
system.cpu.dtb.misses                               0                       # DTB misses
system.cpu.dtb.perms_faults                         0                       # Number of TLB faults due to permissions restrictions
system.cpu.dtb.prefetch_faults                      0                       # Number of TLB faults due to prefetch
system.cpu.dtb.read_accesses                        0                       # DTB read accesses
system.cpu.dtb.read_hits                            0                       # DTB read hits
system.cpu.dtb.read_misses                          0                       # DTB read misses
system.cpu.dtb.stage2_mmu.stage2_tlb.accesses            0                       # DTB accesses
system.cpu.dtb.stage2_mmu.stage2_tlb.align_faults            0                       # Number of TLB faults due to alignment restrictions
system.cpu.dtb.stage2_mmu.stage2_tlb.domain_faults            0                       # Number of TLB faults due to domain restrictions
system.cpu.dtb.stage2_mmu.stage2_tlb.flush_entries            0                       # Number of entries that have been flushed from TLB
system.cpu.dtb.stage2_mmu.stage2_tlb.flush_tlb            0                       # Number of times complete TLB was flushed
system.cpu.dtb.stage2_mmu.stage2_tlb.flush_tlb_asid            0                       # Number of times TLB was flushed by ASID
system.cpu.dtb.stage2_mmu.stage2_tlb.flush_tlb_mva            0                       # Number of times TLB was flushed by MVA
system.cpu.dtb.stage2_mmu.stage2_tlb.flush_tlb_mva_asid            0                       # Number of times TLB was flushed by MVA & ASID
system.cpu.dtb.stage2_mmu.stage2_tlb.hits            0                       # DTB hits
system.cpu.dtb.stage2_mmu.stage2_tlb.inst_accesses            0                       # ITB inst accesses
system.cpu.dtb.stage2_mmu.stage2_tlb.inst_hits            0                       # ITB inst hits
system.cpu.dtb.stage2_mmu.stage2_tlb.inst_misses            0                       # ITB inst misses
system.cpu.dtb.stage2_mmu.stage2_tlb.misses            0                       # DTB misses
system.cpu.dtb.stage2_mmu.stage2_tlb.perms_faults            0                       # Number of TLB faults due to permissions restrictions
system.cpu.dtb.stage2_mmu.stage2_tlb.prefetch_faults            0                       # Number of TLB faults due to prefetch
system.cpu.dtb.stage2_mmu.stage2_tlb.read_accesses            0                       # DTB read accesses
system.cpu.dtb.stage2_mmu.stage2_tlb.read_hits            0                       # DTB read hits
system.cpu.dtb.stage2_mmu.stage2_tlb.read_misses            0                       # DTB read misses
system.cpu.dtb.stage2_mmu.stage2_tlb.walker.walkRequestOrigin_Requested::Data            0                       # Table walker requests started/completed, data/inst
system.cpu.dtb.stage2_mmu.stage2_tlb.walker.walkRequestOrigin_Requested::Inst            0                       # Table walker requests started/completed, data/inst
system.cpu.dtb.stage2_mmu.stage2_tlb.walker.walkRequestOrigin_Requested::total            0                       # Table walker requests started/completed, data/inst
system.cpu.dtb.stage2_mmu.stage2_tlb.walker.walkRequestOrigin_Completed::Data            0                       # Table walker requests started/completed, data/inst
system.cpu.dtb.stage2_mmu.stage2_tlb.walker.walkRequestOrigin_Completed::Inst            0                       # Table walker requests started/completed, data/inst
system.cpu.dtb.stage2_mmu.stage2_tlb.walker.walkRequestOrigin_Completed::total            0                       # Table walker requests started/completed, data/inst
system.cpu.dtb.stage2_mmu.stage2_tlb.walker.walkRequestOrigin::total            0                       # Table walker requests started/completed, data/inst
system.cpu.dtb.stage2_mmu.stage2_tlb.walker.walks            0                       # Table walker walks requested
system.cpu.dtb.stage2_mmu.stage2_tlb.write_accesses            0                       # DTB write accesses
system.cpu.dtb.stage2_mmu.stage2_tlb.write_hits            0                       # DTB write hits
system.cpu.dtb.stage2_mmu.stage2_tlb.write_misses            0                       # DTB write misses
system.cpu.dtb.walker.walkRequestOrigin_Requested::Data            0                       # Table walker requests started/completed, data/inst
system.cpu.dtb.walker.walkRequestOrigin_Requested::Inst            0                       # Table walker requests started/completed, data/inst
system.cpu.dtb.walker.walkRequestOrigin_Requested::total            0                       # Table walker requests started/completed, data/inst
system.cpu.dtb.walker.walkRequestOrigin_Completed::Data            0                       # Table walker requests started/completed, data/inst
system.cpu.dtb.walker.walkRequestOrigin_Completed::Inst            0                       # Table walker requests started/completed, data/inst
system.cpu.dtb.walker.walkRequestOrigin_Completed::total            0                       # Table walker requests started/completed, data/inst
system.cpu.dtb.walker.walkRequestOrigin::total            0                       # Table walker requests started/completed, data/inst
system.cpu.dtb.walker.walks                         0                       # Table walker walks requested
system.cpu.dtb.write_accesses                       0                       # DTB write accesses
system.cpu.dtb.write_hits                           0                       # DTB write hits
system.cpu.dtb.write_misses                         0                       # DTB write misses
system.cpu.fetch2.amo_instructions                  0                       # Number of memory atomic instructions successfully decoded
system.cpu.fetch2.fp_instructions                   0                       # Number of floating point instructions successfully decoded
system.cpu.fetch2.int_instructions           44894869                       # Number of integer instructions successfully decoded
system.cpu.fetch2.load_instructions           2086324                       # Number of memory load instructions successfully decoded
system.cpu.fetch2.store_instructions           169068                       # Number of memory store instructions successfully decoded
system.cpu.fetch2.vec_instructions                  0                       # Number of SIMD instructions successfully decoded
system.cpu.idleCycles                       484720051                       # Total number of cycles that the object has spent stopped
system.cpu.ipc                               0.141641                       # IPC: instructions per cycle
system.cpu.itb.accesses                             0                       # DTB accesses
system.cpu.itb.align_faults                         0                       # Number of TLB faults due to alignment restrictions
system.cpu.itb.domain_faults                        0                       # Number of TLB faults due to domain restrictions
system.cpu.itb.flush_entries                        0                       # Number of entries that have been flushed from TLB
system.cpu.itb.flush_tlb                            0                       # Number of times complete TLB was flushed
system.cpu.itb.flush_tlb_asid                       0                       # Number of times TLB was flushed by ASID
system.cpu.itb.flush_tlb_mva                        0                       # Number of times TLB was flushed by MVA
system.cpu.itb.flush_tlb_mva_asid                   0                       # Number of times TLB was flushed by MVA & ASID
system.cpu.itb.hits                                 0                       # DTB hits
system.cpu.itb.inst_accesses                        0                       # ITB inst accesses
system.cpu.itb.inst_hits                            0                       # ITB inst hits
system.cpu.itb.inst_misses                          0                       # ITB inst misses
system.cpu.itb.misses                               0                       # DTB misses
system.cpu.itb.perms_faults                         0                       # Number of TLB faults due to permissions restrictions
system.cpu.itb.prefetch_faults                      0                       # Number of TLB faults due to prefetch
system.cpu.itb.read_accesses                        0                       # DTB read accesses
system.cpu.itb.read_hits                            0                       # DTB read hits
system.cpu.itb.read_misses                          0                       # DTB read misses
system.cpu.itb.stage2_mmu.stage2_tlb.accesses            0                       # DTB accesses
system.cpu.itb.stage2_mmu.stage2_tlb.align_faults            0                       # Number of TLB faults due to alignment restrictions
system.cpu.itb.stage2_mmu.stage2_tlb.domain_faults            0                       # Number of TLB faults due to domain restrictions
system.cpu.itb.stage2_mmu.stage2_tlb.flush_entries            0                       # Number of entries that have been flushed from TLB
system.cpu.itb.stage2_mmu.stage2_tlb.flush_tlb            0                       # Number of times complete TLB was flushed
system.cpu.itb.stage2_mmu.stage2_tlb.flush_tlb_asid            0                       # Number of times TLB was flushed by ASID
system.cpu.itb.stage2_mmu.stage2_tlb.flush_tlb_mva            0                       # Number of times TLB was flushed by MVA
system.cpu.itb.stage2_mmu.stage2_tlb.flush_tlb_mva_asid            0                       # Number of times TLB was flushed by MVA & ASID
system.cpu.itb.stage2_mmu.stage2_tlb.hits            0                       # DTB hits
system.cpu.itb.stage2_mmu.stage2_tlb.inst_accesses            0                       # ITB inst accesses
system.cpu.itb.stage2_mmu.stage2_tlb.inst_hits            0                       # ITB inst hits
system.cpu.itb.stage2_mmu.stage2_tlb.inst_misses            0                       # ITB inst misses
system.cpu.itb.stage2_mmu.stage2_tlb.misses            0                       # DTB misses
system.cpu.itb.stage2_mmu.stage2_tlb.perms_faults            0                       # Number of TLB faults due to permissions restrictions
system.cpu.itb.stage2_mmu.stage2_tlb.prefetch_faults            0                       # Number of TLB faults due to prefetch
system.cpu.itb.stage2_mmu.stage2_tlb.read_accesses            0                       # DTB read accesses
system.cpu.itb.stage2_mmu.stage2_tlb.read_hits            0                       # DTB read hits
system.cpu.itb.stage2_mmu.stage2_tlb.read_misses            0                       # DTB read misses
system.cpu.itb.stage2_mmu.stage2_tlb.walker.walkRequestOrigin_Requested::Data            0                       # Table walker requests started/completed, data/inst
system.cpu.itb.stage2_mmu.stage2_tlb.walker.walkRequestOrigin_Requested::Inst            0                       # Table walker requests started/completed, data/inst
system.cpu.itb.stage2_mmu.stage2_tlb.walker.walkRequestOrigin_Requested::total            0                       # Table walker requests started/completed, data/inst
system.cpu.itb.stage2_mmu.stage2_tlb.walker.walkRequestOrigin_Completed::Data            0                       # Table walker requests started/completed, data/inst
system.cpu.itb.stage2_mmu.stage2_tlb.walker.walkRequestOrigin_Completed::Inst            0                       # Table walker requests started/completed, data/inst
system.cpu.itb.stage2_mmu.stage2_tlb.walker.walkRequestOrigin_Completed::total            0                       # Table walker requests started/completed, data/inst
system.cpu.itb.stage2_mmu.stage2_tlb.walker.walkRequestOrigin::total            0                       # Table walker requests started/completed, data/inst
system.cpu.itb.stage2_mmu.stage2_tlb.walker.walks            0                       # Table walker walks requested
system.cpu.itb.stage2_mmu.stage2_tlb.write_accesses            0                       # DTB write accesses
system.cpu.itb.stage2_mmu.stage2_tlb.write_hits            0                       # DTB write hits
system.cpu.itb.stage2_mmu.stage2_tlb.write_misses            0                       # DTB write misses
system.cpu.itb.walker.walkRequestOrigin_Requested::Data            0                       # Table walker requests started/completed, data/inst
system.cpu.itb.walker.walkRequestOrigin_Requested::Inst            0                       # Table walker requests started/completed, data/inst
system.cpu.itb.walker.walkRequestOrigin_Requested::total            0                       # Table walker requests started/completed, data/inst
system.cpu.itb.walker.walkRequestOrigin_Completed::Data            0                       # Table walker requests started/completed, data/inst
system.cpu.itb.walker.walkRequestOrigin_Completed::Inst            0                       # Table walker requests started/completed, data/inst
system.cpu.itb.walker.walkRequestOrigin_Completed::total            0                       # Table walker requests started/completed, data/inst
system.cpu.itb.walker.walkRequestOrigin::total            0                       # Table walker requests started/completed, data/inst
system.cpu.itb.walker.walks                         0                       # Table walker walks requested
system.cpu.itb.write_accesses                       0                       # DTB write accesses
system.cpu.itb.write_hits                           0                       # DTB write hits
system.cpu.itb.write_misses                         0                       # DTB write misses
system.cpu.numCycles                        706012089                       # number of cpu cycles simulated
system.cpu.numFetchSuspends                         0                       # Number of times Execute suspended instruction fetching
system.cpu.numWorkItemsCompleted                    0                       # number of work items this cpu completed
system.cpu.numWorkItemsStarted                      0                       # number of work items this cpu started
system.cpu.op_class_0::No_OpClass                   0      0.00%      0.00% # Class of committed instruction
system.cpu.op_class_0::IntAlu                97640482     53.02%     53.02% # Class of committed instruction
system.cpu.op_class_0::IntMult                 114699      0.06%     53.08% # Class of committed instruction
system.cpu.op_class_0::IntDiv                       0      0.00%     53.08% # Class of committed instruction
system.cpu.op_class_0::FloatAdd                     0      0.00%     53.08% # Class of committed instruction
system.cpu.op_class_0::FloatCmp                     0      0.00%     53.08% # Class of committed instruction
system.cpu.op_class_0::FloatCvt                     0      0.00%     53.08% # Class of committed instruction
system.cpu.op_class_0::FloatMult                    0      0.00%     53.08% # Class of committed instruction
system.cpu.op_class_0::FloatMultAcc                 0      0.00%     53.08% # Class of committed instruction
system.cpu.op_class_0::FloatDiv                     0      0.00%     53.08% # Class of committed instruction
system.cpu.op_class_0::FloatMisc                    0      0.00%     53.08% # Class of committed instruction
system.cpu.op_class_0::FloatSqrt                    0      0.00%     53.08% # Class of committed instruction
system.cpu.op_class_0::SimdAdd                      8      0.00%     53.08% # Class of committed instruction
system.cpu.op_class_0::SimdAddAcc                   0      0.00%     53.08% # Class of committed instruction
system.cpu.op_class_0::SimdAlu                      8      0.00%     53.08% # Class of committed instruction
system.cpu.op_class_0::SimdCmp                      6      0.00%     53.08% # Class of committed instruction
system.cpu.op_class_0::SimdCvt                      0      0.00%     53.08% # Class of committed instruction
system.cpu.op_class_0::SimdMisc                     1      0.00%     53.08% # Class of committed instruction
system.cpu.op_class_0::SimdMult                     0      0.00%     53.08% # Class of committed instruction
system.cpu.op_class_0::SimdMultAcc                  0      0.00%     53.08% # Class of committed instruction
system.cpu.op_class_0::SimdShift                    0      0.00%     53.08% # Class of committed instruction
system.cpu.op_class_0::SimdShiftAcc                 0      0.00%     53.08% # Class of committed instruction
system.cpu.op_class_0::SimdDiv                      0      0.00%     53.08% # Class of committed instruction
system.cpu.op_class_0::SimdSqrt                     0      0.00%     53.08% # Class of committed instruction
system.cpu.op_class_0::SimdFloatAdd                 0      0.00%     53.08% # Class of committed instruction
system.cpu.op_class_0::SimdFloatAlu                 0      0.00%     53.08% # Class of committed instruction
system.cpu.op_class_0::SimdFloatCmp                 0      0.00%     53.08% # Class of committed instruction
system.cpu.op_class_0::SimdFloatCvt                 0      0.00%     53.08% # Class of committed instruction
system.cpu.op_class_0::SimdFloatDiv                 0      0.00%     53.08% # Class of committed instruction
system.cpu.op_class_0::SimdFloatMisc               23      0.00%     53.08% # Class of committed instruction
system.cpu.op_class_0::SimdFloatMult                0      0.00%     53.08% # Class of committed instruction
system.cpu.op_class_0::SimdFloatMultAcc             0      0.00%     53.08% # Class of committed instruction
system.cpu.op_class_0::SimdFloatSqrt                0      0.00%     53.08% # Class of committed instruction
system.cpu.op_class_0::SimdReduceAdd                0      0.00%     53.08% # Class of committed instruction
system.cpu.op_class_0::SimdReduceAlu                0      0.00%     53.08% # Class of committed instruction
system.cpu.op_class_0::SimdReduceCmp                0      0.00%     53.08% # Class of committed instruction
system.cpu.op_class_0::SimdFloatReduceAdd            0      0.00%     53.08% # Class of committed instruction
system.cpu.op_class_0::SimdFloatReduceCmp            0      0.00%     53.08% # Class of committed instruction
system.cpu.op_class_0::SimdAes                      0      0.00%     53.08% # Class of committed instruction
system.cpu.op_class_0::SimdAesMix                   0      0.00%     53.08% # Class of committed instruction
system.cpu.op_class_0::SimdSha1Hash                 0      0.00%     53.08% # Class of committed instruction
system.cpu.op_class_0::SimdSha1Hash2                0      0.00%     53.08% # Class of committed instruction
system.cpu.op_class_0::SimdSha256Hash               0      0.00%     53.08% # Class of committed instruction
system.cpu.op_class_0::SimdSha256Hash2              0      0.00%     53.08% # Class of committed instruction
system.cpu.op_class_0::SimdShaSigma2                0      0.00%     53.08% # Class of committed instruction
system.cpu.op_class_0::SimdShaSigma3                0      0.00%     53.08% # Class of committed instruction
system.cpu.op_class_0::SimdPredAlu                  0      0.00%     53.08% # Class of committed instruction
system.cpu.op_class_0::MemRead                2082680      1.13%     54.21% # Class of committed instruction
system.cpu.op_class_0::MemWrite              84336932     45.79%    100.00% # Class of committed instruction
system.cpu.op_class_0::FloatMemRead                 0      0.00%    100.00% # Class of committed instruction
system.cpu.op_class_0::FloatMemWrite                0      0.00%    100.00% # Class of committed instruction
system.cpu.op_class_0::IprAccess                    0      0.00%    100.00% # Class of committed instruction
system.cpu.op_class_0::InstPrefetch                 0      0.00%    100.00% # Class of committed instruction
system.cpu.op_class_0::total                184174839                       # Class of committed instruction
system.cpu.tickCycles                       221292038                       # Number of cycles that the object actually ticked
system.cpu.workload.numSyscalls                    18                       # Number of system calls
system.membus.snoop_filter.hit_multi_requests            0                       # Number of requests hitting in the snoop filter with multiple (>1) holders of the requested data.
system.membus.snoop_filter.hit_multi_snoops            0                       # Number of snoops hitting in the snoop filter with multiple (>1) holders of the requested data.
system.membus.snoop_filter.hit_single_requests      5246901                       # Number of requests hitting in the snoop filter with a single holder of the requested data.
system.membus.snoop_filter.hit_single_snoops            0                       # Number of snoops hitting in the snoop filter with a single holder of the requested data.
system.membus.snoop_filter.tot_requests      10510780                       # Total number of requests made to the snoop filter.
system.membus.snoop_filter.tot_snoops               0                       # Total number of snoops made to the snoop filter.
system.tol2bus.snoop_filter.hit_multi_requests           60                       # Number of requests hitting in the snoop filter with multiple (>1) holders of the requested data.
system.tol2bus.snoop_filter.hit_multi_snoops            3                       # Number of snoops hitting in the snoop filter with multiple (>1) holders of the requested data.
system.tol2bus.snoop_filter.hit_single_requests      5305410                       # Number of requests hitting in the snoop filter with a single holder of the requested data.
system.tol2bus.snoop_filter.hit_single_snoops         9561                       # Number of snoops hitting in the snoop filter with a single holder of the requested data.
system.tol2bus.snoop_filter.tot_requests     10615523                       # Total number of requests made to the snoop filter.
system.tol2bus.snoop_filter.tot_snoops           9564                       # Total number of snoops made to the snoop filter.
system.membus.pwrStateResidencyTicks::UNDEFINED 706012089000                       # Cumulative time (in ticks) in various power states
system.membus.trans_dist::ReadResp                868                       # Transaction distribution
system.membus.trans_dist::WritebackDirty      5246668                       # Transaction distribution
system.membus.trans_dist::CleanEvict              220                       # Transaction distribution
system.membus.trans_dist::ReadExReq           5263024                       # Transaction distribution
system.membus.trans_dist::ReadExResp          5263024                       # Transaction distribution
system.membus.trans_dist::ReadSharedReq           868                       # Transaction distribution
system.membus.pkt_count_system.l2.mem_side::system.mem_ctrls.port     15774672                       # Packet count per connected master and slave (bytes)
system.membus.pkt_count::total               15774672                       # Packet count per connected master and slave (bytes)
system.membus.pkt_size_system.l2.mem_side::system.mem_ctrls.port    672675840                       # Cumulative packet size per connected master and slave (bytes)
system.membus.pkt_size::total               672675840                       # Cumulative packet size per connected master and slave (bytes)
system.membus.snoops                                0                       # Total snoops (count)
system.membus.snoopTraffic                          0                       # Total snoop traffic (bytes)
system.membus.snoop_fanout::samples           5263892                       # Request fanout histogram
system.membus.snoop_fanout::mean                    0                       # Request fanout histogram
system.membus.snoop_fanout::stdev                   0                       # Request fanout histogram
system.membus.snoop_fanout::underflows              0      0.00%      0.00% # Request fanout histogram
system.membus.snoop_fanout::0                 5263892    100.00%    100.00% # Request fanout histogram
system.membus.snoop_fanout::1                       0      0.00%    100.00% # Request fanout histogram
system.membus.snoop_fanout::overflows               0      0.00%    100.00% # Request fanout histogram
system.membus.snoop_fanout::min_value               0                       # Request fanout histogram
system.membus.snoop_fanout::max_value               0                       # Request fanout histogram
system.membus.snoop_fanout::total             5263892                       # Request fanout histogram
system.membus.respLayer1.occupancy        27694549000                       # Layer occupancy (ticks)
system.membus.respLayer1.utilization              3.9                       # Layer utilization (%)
system.membus.reqLayer0.occupancy         31497452000                       # Layer occupancy (ticks)
system.membus.reqLayer0.utilization               4.5                       # Layer utilization (%)
system.tol2bus.pwrStateResidencyTicks::UNDEFINED 706012089000                       # Cumulative time (in ticks) in various power states
system.tol2bus.trans_dist::ReadResp             47040                       # Transaction distribution
system.tol2bus.trans_dist::WritebackDirty     10528718                       # Transaction distribution
system.tol2bus.trans_dist::WritebackClean            2                       # Transaction distribution
system.tol2bus.trans_dist::CleanEvict           33026                       # Transaction distribution
system.tol2bus.trans_dist::ReadExReq          5263073                       # Transaction distribution
system.tol2bus.trans_dist::ReadExResp         5263073                       # Transaction distribution
system.tol2bus.trans_dist::ReadCleanReq           609                       # Transaction distribution
system.tol2bus.trans_dist::ReadSharedReq        46431                       # Transaction distribution
system.tol2bus.pkt_count_system.cpu.icache.mem_side::system.l2.cpu_side         1220                       # Packet count per connected master and slave (bytes)
system.tol2bus.pkt_count_system.cpu.dcache.mem_side::system.l2.cpu_side     15924416                       # Packet count per connected master and slave (bytes)
system.tol2bus.pkt_count::total              15925636                       # Packet count per connected master and slave (bytes)
system.tol2bus.pkt_size_system.cpu.icache.mem_side::system.l2.cpu_side        39104                       # Cumulative packet size per connected master and slave (bytes)
system.tol2bus.pkt_size_system.cpu.dcache.mem_side::system.l2.cpu_side    677859456                       # Cumulative packet size per connected master and slave (bytes)
system.tol2bus.pkt_size::total              677898560                       # Cumulative packet size per connected master and slave (bytes)
system.tol2bus.snoops                         5256336                       # Total snoops (count)
system.tol2bus.snoopTraffic                 335786752                       # Total snoop traffic (bytes)
system.tol2bus.snoop_fanout::samples         10566449                       # Request fanout histogram
system.tol2bus.snoop_fanout::mean            0.000911                       # Request fanout histogram
system.tol2bus.snoop_fanout::stdev           0.030180                       # Request fanout histogram
system.tol2bus.snoop_fanout::underflows             0      0.00%      0.00% # Request fanout histogram
system.tol2bus.snoop_fanout::0               10556825     99.91%     99.91% # Request fanout histogram
system.tol2bus.snoop_fanout::1                   9621      0.09%    100.00% # Request fanout histogram
system.tol2bus.snoop_fanout::2                      3      0.00%    100.00% # Request fanout histogram
system.tol2bus.snoop_fanout::overflows              0      0.00%    100.00% # Request fanout histogram
system.tol2bus.snoop_fanout::min_value              0                       # Request fanout histogram
system.tol2bus.snoop_fanout::max_value              2                       # Request fanout histogram
system.tol2bus.snoop_fanout::total           10566449                       # Request fanout histogram
system.tol2bus.reqLayer0.occupancy        21179627000                       # Layer occupancy (ticks)
system.tol2bus.reqLayer0.utilization              3.0                       # Layer utilization (%)
system.tol2bus.respLayer1.occupancy       15928517994                       # Layer occupancy (ticks)
system.tol2bus.respLayer1.utilization             2.3                       # Layer utilization (%)
system.tol2bus.respLayer0.occupancy           1828998                       # Layer occupancy (ticks)
system.tol2bus.respLayer0.utilization             0.0                       # Layer utilization (%)
system.voltage_domain.voltage                       1                       # Voltage in Volts
system.clk_domain.clock                          1000                       # Clock period in ticks
system.l2.pwrStateResidencyTicks::UNDEFINED 706012089000                       # Cumulative time (in ticks) in various power states
system.l2.demand_hits::.cpu.inst                   24                       # number of demand (read+write) hits
system.l2.demand_hits::.cpu.data                46190                       # number of demand (read+write) hits
system.l2.demand_hits::total                    46214                       # number of demand (read+write) hits
system.l2.overall_hits::.cpu.inst                  24                       # number of overall hits
system.l2.overall_hits::.cpu.data               46190                       # number of overall hits
system.l2.overall_hits::total                   46214                       # number of overall hits
system.l2.demand_misses::.cpu.inst                585                       # number of demand (read+write) misses
system.l2.demand_misses::.cpu.data            5263314                       # number of demand (read+write) misses
system.l2.demand_misses::total                5263899                       # number of demand (read+write) misses
system.l2.overall_misses::.cpu.inst               585                       # number of overall misses
system.l2.overall_misses::.cpu.data           5263314                       # number of overall misses
system.l2.overall_misses::total               5263899                       # number of overall misses
system.l2.demand_miss_latency::.cpu.inst     58276000                       # number of demand (read+write) miss cycles
system.l2.demand_miss_latency::.cpu.data 524830375000                       # number of demand (read+write) miss cycles
system.l2.demand_miss_latency::total     524888651000                       # number of demand (read+write) miss cycles
system.l2.overall_miss_latency::.cpu.inst     58276000                       # number of overall miss cycles
system.l2.overall_miss_latency::.cpu.data 524830375000                       # number of overall miss cycles
system.l2.overall_miss_latency::total    524888651000                       # number of overall miss cycles
system.l2.demand_accesses::.cpu.inst              609                       # number of demand (read+write) accesses
system.l2.demand_accesses::.cpu.data          5309504                       # number of demand (read+write) accesses
system.l2.demand_accesses::total              5310113                       # number of demand (read+write) accesses
system.l2.overall_accesses::.cpu.inst             609                       # number of overall (read+write) accesses
system.l2.overall_accesses::.cpu.data         5309504                       # number of overall (read+write) accesses
system.l2.overall_accesses::total             5310113                       # number of overall (read+write) accesses
system.l2.demand_miss_rate::.cpu.inst        0.960591                       # miss rate for demand accesses
system.l2.demand_miss_rate::.cpu.data        0.991301                       # miss rate for demand accesses
system.l2.demand_miss_rate::total            0.991297                       # miss rate for demand accesses
system.l2.overall_miss_rate::.cpu.inst       0.960591                       # miss rate for overall accesses
system.l2.overall_miss_rate::.cpu.data       0.991301                       # miss rate for overall accesses
system.l2.overall_miss_rate::total           0.991297                       # miss rate for overall accesses
system.l2.demand_avg_miss_latency::.cpu.inst 99617.094017                       # average overall miss latency
system.l2.demand_avg_miss_latency::.cpu.data 99714.813709                       # average overall miss latency
system.l2.demand_avg_miss_latency::total 99714.802849                       # average overall miss latency
system.l2.overall_avg_miss_latency::.cpu.inst 99617.094017                       # average overall miss latency
system.l2.overall_avg_miss_latency::.cpu.data 99714.813709                       # average overall miss latency
system.l2.overall_avg_miss_latency::total 99714.802849                       # average overall miss latency
system.l2.blocked_cycles::no_mshrs                  0                       # number of cycles access was blocked
system.l2.blocked_cycles::no_targets                0                       # number of cycles access was blocked
system.l2.blocked::no_mshrs                         0                       # number of cycles access was blocked
system.l2.blocked::no_targets                       0                       # number of cycles access was blocked
system.l2.avg_blocked_cycles::no_mshrs            nan                       # average number of cycles each access was blocked
system.l2.avg_blocked_cycles::no_targets          nan                       # average number of cycles each access was blocked
system.l2.writebacks::.writebacks             5246668                       # number of writebacks
system.l2.writebacks::total                   5246668                       # number of writebacks
system.l2.demand_mshr_hits::.cpu.inst               2                       # number of demand (read+write) MSHR hits
system.l2.demand_mshr_hits::.cpu.data               5                       # number of demand (read+write) MSHR hits
system.l2.demand_mshr_hits::total                   7                       # number of demand (read+write) MSHR hits
system.l2.overall_mshr_hits::.cpu.inst              2                       # number of overall MSHR hits
system.l2.overall_mshr_hits::.cpu.data              5                       # number of overall MSHR hits
system.l2.overall_mshr_hits::total                  7                       # number of overall MSHR hits
system.l2.demand_mshr_misses::.cpu.inst           583                       # number of demand (read+write) MSHR misses
system.l2.demand_mshr_misses::.cpu.data       5263309                       # number of demand (read+write) MSHR misses
system.l2.demand_mshr_misses::total           5263892                       # number of demand (read+write) MSHR misses
system.l2.overall_mshr_misses::.cpu.inst          583                       # number of overall MSHR misses
system.l2.overall_mshr_misses::.cpu.data      5263309                       # number of overall MSHR misses
system.l2.overall_mshr_misses::total          5263892                       # number of overall MSHR misses
system.l2.demand_mshr_miss_latency::.cpu.inst     46434000                       # number of demand (read+write) MSHR miss cycles
system.l2.demand_mshr_miss_latency::.cpu.data 419563790000                       # number of demand (read+write) MSHR miss cycles
system.l2.demand_mshr_miss_latency::total 419610224000                       # number of demand (read+write) MSHR miss cycles
system.l2.overall_mshr_miss_latency::.cpu.inst     46434000                       # number of overall MSHR miss cycles
system.l2.overall_mshr_miss_latency::.cpu.data 419563790000                       # number of overall MSHR miss cycles
system.l2.overall_mshr_miss_latency::total 419610224000                       # number of overall MSHR miss cycles
system.l2.demand_mshr_miss_rate::.cpu.inst     0.957307                       # mshr miss rate for demand accesses
system.l2.demand_mshr_miss_rate::.cpu.data     0.991300                       # mshr miss rate for demand accesses
system.l2.demand_mshr_miss_rate::total       0.991296                       # mshr miss rate for demand accesses
system.l2.overall_mshr_miss_rate::.cpu.inst     0.957307                       # mshr miss rate for overall accesses
system.l2.overall_mshr_miss_rate::.cpu.data     0.991300                       # mshr miss rate for overall accesses
system.l2.overall_mshr_miss_rate::total      0.991296                       # mshr miss rate for overall accesses
system.l2.demand_avg_mshr_miss_latency::.cpu.inst 79646.655232                       # average overall mshr miss latency
system.l2.demand_avg_mshr_miss_latency::.cpu.data 79714.831487                       # average overall mshr miss latency
system.l2.demand_avg_mshr_miss_latency::total 79714.823936                       # average overall mshr miss latency
system.l2.overall_avg_mshr_miss_latency::.cpu.inst 79646.655232                       # average overall mshr miss latency
system.l2.overall_avg_mshr_miss_latency::.cpu.data 79714.831487                       # average overall mshr miss latency
system.l2.overall_avg_mshr_miss_latency::total 79714.823936                       # average overall mshr miss latency
system.l2.replacements                        5256336                       # number of replacements
system.l2.WritebackDirty_hits::.writebacks      5282050                       # number of WritebackDirty hits
system.l2.WritebackDirty_hits::total          5282050                       # number of WritebackDirty hits
system.l2.WritebackDirty_accesses::.writebacks      5282050                       # number of WritebackDirty accesses(hits+misses)
system.l2.WritebackDirty_accesses::total      5282050                       # number of WritebackDirty accesses(hits+misses)
system.l2.WritebackClean_hits::.writebacks            2                       # number of WritebackClean hits
system.l2.WritebackClean_hits::total                2                       # number of WritebackClean hits
system.l2.WritebackClean_accesses::.writebacks            2                       # number of WritebackClean accesses(hits+misses)
system.l2.WritebackClean_accesses::total            2                       # number of WritebackClean accesses(hits+misses)
system.l2.CleanEvict_mshr_misses::.writebacks          116                       # number of CleanEvict MSHR misses
system.l2.CleanEvict_mshr_misses::total           116                       # number of CleanEvict MSHR misses
system.l2.CleanEvict_mshr_miss_rate::.writebacks          inf                       # mshr miss rate for CleanEvict accesses
system.l2.CleanEvict_mshr_miss_rate::total          inf                       # mshr miss rate for CleanEvict accesses
system.l2.ReadExReq_hits::.cpu.data                49                       # number of ReadExReq hits
system.l2.ReadExReq_hits::total                    49                       # number of ReadExReq hits
system.l2.ReadExReq_misses::.cpu.data         5263024                       # number of ReadExReq misses
system.l2.ReadExReq_misses::total             5263024                       # number of ReadExReq misses
system.l2.ReadExReq_miss_latency::.cpu.data 524799657000                       # number of ReadExReq miss cycles
system.l2.ReadExReq_miss_latency::total  524799657000                       # number of ReadExReq miss cycles
system.l2.ReadExReq_accesses::.cpu.data       5263073                       # number of ReadExReq accesses(hits+misses)
system.l2.ReadExReq_accesses::total           5263073                       # number of ReadExReq accesses(hits+misses)
system.l2.ReadExReq_miss_rate::.cpu.data     0.999991                       # miss rate for ReadExReq accesses
system.l2.ReadExReq_miss_rate::total         0.999991                       # miss rate for ReadExReq accesses
system.l2.ReadExReq_avg_miss_latency::.cpu.data 99714.471566                       # average ReadExReq miss latency
system.l2.ReadExReq_avg_miss_latency::total 99714.471566                       # average ReadExReq miss latency
system.l2.ReadExReq_mshr_misses::.cpu.data      5263024                       # number of ReadExReq MSHR misses
system.l2.ReadExReq_mshr_misses::total        5263024                       # number of ReadExReq MSHR misses
system.l2.ReadExReq_mshr_miss_latency::.cpu.data 419539177000                       # number of ReadExReq MSHR miss cycles
system.l2.ReadExReq_mshr_miss_latency::total 419539177000                       # number of ReadExReq MSHR miss cycles
system.l2.ReadExReq_mshr_miss_rate::.cpu.data     0.999991                       # mshr miss rate for ReadExReq accesses
system.l2.ReadExReq_mshr_miss_rate::total     0.999991                       # mshr miss rate for ReadExReq accesses
system.l2.ReadExReq_avg_mshr_miss_latency::.cpu.data 79714.471566                       # average ReadExReq mshr miss latency
system.l2.ReadExReq_avg_mshr_miss_latency::total 79714.471566                       # average ReadExReq mshr miss latency
system.l2.ReadCleanReq_hits::.cpu.inst             24                       # number of ReadCleanReq hits
system.l2.ReadCleanReq_hits::total                 24                       # number of ReadCleanReq hits
system.l2.ReadCleanReq_misses::.cpu.inst          585                       # number of ReadCleanReq misses
system.l2.ReadCleanReq_misses::total              585                       # number of ReadCleanReq misses
system.l2.ReadCleanReq_miss_latency::.cpu.inst     58276000                       # number of ReadCleanReq miss cycles
system.l2.ReadCleanReq_miss_latency::total     58276000                       # number of ReadCleanReq miss cycles
system.l2.ReadCleanReq_accesses::.cpu.inst          609                       # number of ReadCleanReq accesses(hits+misses)
system.l2.ReadCleanReq_accesses::total            609                       # number of ReadCleanReq accesses(hits+misses)
system.l2.ReadCleanReq_miss_rate::.cpu.inst     0.960591                       # miss rate for ReadCleanReq accesses
system.l2.ReadCleanReq_miss_rate::total      0.960591                       # miss rate for ReadCleanReq accesses
system.l2.ReadCleanReq_avg_miss_latency::.cpu.inst 99617.094017                       # average ReadCleanReq miss latency
system.l2.ReadCleanReq_avg_miss_latency::total 99617.094017                       # average ReadCleanReq miss latency
system.l2.ReadCleanReq_mshr_hits::.cpu.inst            2                       # number of ReadCleanReq MSHR hits
system.l2.ReadCleanReq_mshr_hits::total             2                       # number of ReadCleanReq MSHR hits
system.l2.ReadCleanReq_mshr_misses::.cpu.inst          583                       # number of ReadCleanReq MSHR misses
system.l2.ReadCleanReq_mshr_misses::total          583                       # number of ReadCleanReq MSHR misses
system.l2.ReadCleanReq_mshr_miss_latency::.cpu.inst     46434000                       # number of ReadCleanReq MSHR miss cycles
system.l2.ReadCleanReq_mshr_miss_latency::total     46434000                       # number of ReadCleanReq MSHR miss cycles
system.l2.ReadCleanReq_mshr_miss_rate::.cpu.inst     0.957307                       # mshr miss rate for ReadCleanReq accesses
system.l2.ReadCleanReq_mshr_miss_rate::total     0.957307                       # mshr miss rate for ReadCleanReq accesses
system.l2.ReadCleanReq_avg_mshr_miss_latency::.cpu.inst 79646.655232                       # average ReadCleanReq mshr miss latency
system.l2.ReadCleanReq_avg_mshr_miss_latency::total 79646.655232                       # average ReadCleanReq mshr miss latency
system.l2.ReadSharedReq_hits::.cpu.data         46141                       # number of ReadSharedReq hits
system.l2.ReadSharedReq_hits::total             46141                       # number of ReadSharedReq hits
system.l2.ReadSharedReq_misses::.cpu.data          290                       # number of ReadSharedReq misses
system.l2.ReadSharedReq_misses::total             290                       # number of ReadSharedReq misses
system.l2.ReadSharedReq_miss_latency::.cpu.data     30718000                       # number of ReadSharedReq miss cycles
system.l2.ReadSharedReq_miss_latency::total     30718000                       # number of ReadSharedReq miss cycles
system.l2.ReadSharedReq_accesses::.cpu.data        46431                       # number of ReadSharedReq accesses(hits+misses)
system.l2.ReadSharedReq_accesses::total         46431                       # number of ReadSharedReq accesses(hits+misses)
system.l2.ReadSharedReq_miss_rate::.cpu.data     0.006246                       # miss rate for ReadSharedReq accesses
system.l2.ReadSharedReq_miss_rate::total     0.006246                       # miss rate for ReadSharedReq accesses
system.l2.ReadSharedReq_avg_miss_latency::.cpu.data 105924.137931                       # average ReadSharedReq miss latency
system.l2.ReadSharedReq_avg_miss_latency::total 105924.137931                       # average ReadSharedReq miss latency
system.l2.ReadSharedReq_mshr_hits::.cpu.data            5                       # number of ReadSharedReq MSHR hits
system.l2.ReadSharedReq_mshr_hits::total            5                       # number of ReadSharedReq MSHR hits
system.l2.ReadSharedReq_mshr_misses::.cpu.data          285                       # number of ReadSharedReq MSHR misses
system.l2.ReadSharedReq_mshr_misses::total          285                       # number of ReadSharedReq MSHR misses
system.l2.ReadSharedReq_mshr_miss_latency::.cpu.data     24613000                       # number of ReadSharedReq MSHR miss cycles
system.l2.ReadSharedReq_mshr_miss_latency::total     24613000                       # number of ReadSharedReq MSHR miss cycles
system.l2.ReadSharedReq_mshr_miss_rate::.cpu.data     0.006138                       # mshr miss rate for ReadSharedReq accesses
system.l2.ReadSharedReq_mshr_miss_rate::total     0.006138                       # mshr miss rate for ReadSharedReq accesses
system.l2.ReadSharedReq_avg_mshr_miss_latency::.cpu.data 86361.403509                       # average ReadSharedReq mshr miss latency
system.l2.ReadSharedReq_avg_mshr_miss_latency::total 86361.403509                       # average ReadSharedReq mshr miss latency
system.l2.tags.pwrStateResidencyTicks::UNDEFINED 706012089000                       # Cumulative time (in ticks) in various power states
system.l2.tags.tagsinuse                 16205.966648                       # Cycle average of tags in use
system.l2.tags.total_refs                    10615340                       # Total number of references to valid blocks.
system.l2.tags.sampled_refs                   5272720                       # Sample count of references to valid blocks.
system.l2.tags.avg_refs                      2.013257                       # Average number of references to valid blocks.
system.l2.tags.warmup_cycle                     87000                       # Cycle when the warmup percentage was hit.
system.l2.tags.occ_blocks::.writebacks      13.502901                       # Average occupied blocks per requestor
system.l2.tags.occ_blocks::.cpu.inst         5.309844                       # Average occupied blocks per requestor
system.l2.tags.occ_blocks::.cpu.data     16187.153903                       # Average occupied blocks per requestor
system.l2.tags.occ_percent::.writebacks      0.000824                       # Average percentage of cache occupancy
system.l2.tags.occ_percent::.cpu.inst        0.000324                       # Average percentage of cache occupancy
system.l2.tags.occ_percent::.cpu.data        0.987985                       # Average percentage of cache occupancy
system.l2.tags.occ_percent::total            0.989134                       # Average percentage of cache occupancy
system.l2.tags.occ_task_id_blocks::1024         16384                       # Occupied blocks per task id
system.l2.tags.age_task_id_blocks_1024::0           75                       # Occupied blocks per task id
system.l2.tags.age_task_id_blocks_1024::1          679                       # Occupied blocks per task id
system.l2.tags.age_task_id_blocks_1024::2         6780                       # Occupied blocks per task id
system.l2.tags.age_task_id_blocks_1024::3         8850                       # Occupied blocks per task id
system.l2.tags.occ_task_id_percent::1024            1                       # Percentage of cache occupancy per task id
system.l2.tags.tag_accesses                  15888183                       # Number of tag accesses
system.l2.tags.data_accesses                 15888183                       # Number of data accesses
system.cpu_voltage_domain.voltage                   1                       # Voltage in Volts
system.mem_ctrls.pwrStateResidencyTicks::UNDEFINED 706012089000                       # Cumulative time (in ticks) in various power states
system.mem_ctrls.bytes_read::.cpu.inst          37312                       # Number of bytes read from this memory
system.mem_ctrls.bytes_read::.cpu.data      336851776                       # Number of bytes read from this memory
system.mem_ctrls.bytes_read::total          336889088                       # Number of bytes read from this memory
system.mem_ctrls.bytes_inst_read::.cpu.inst        37312                       # Number of instructions bytes read from this memory
system.mem_ctrls.bytes_inst_read::total         37312                       # Number of instructions bytes read from this memory
system.mem_ctrls.bytes_written::.writebacks    335786752                       # Number of bytes written to this memory
system.mem_ctrls.bytes_written::total       335786752                       # Number of bytes written to this memory
system.mem_ctrls.num_reads::.cpu.inst             583                       # Number of read requests responded to by this memory
system.mem_ctrls.num_reads::.cpu.data         5263309                       # Number of read requests responded to by this memory
system.mem_ctrls.num_reads::total             5263892                       # Number of read requests responded to by this memory
system.mem_ctrls.num_writes::.writebacks      5246668                       # Number of write requests responded to by this memory
system.mem_ctrls.num_writes::total            5246668                       # Number of write requests responded to by this memory
system.mem_ctrls.bw_read::.cpu.inst             52849                       # Total read bandwidth from this memory (bytes/s)
system.mem_ctrls.bw_read::.cpu.data         477118992                       # Total read bandwidth from this memory (bytes/s)
system.mem_ctrls.bw_read::total             477171841                       # Total read bandwidth from this memory (bytes/s)
system.mem_ctrls.bw_inst_read::.cpu.inst        52849                       # Instruction read bandwidth from this memory (bytes/s)
system.mem_ctrls.bw_inst_read::total            52849                       # Instruction read bandwidth from this memory (bytes/s)
system.mem_ctrls.bw_write::.writebacks      475610485                       # Write bandwidth from this memory (bytes/s)
system.mem_ctrls.bw_write::total            475610485                       # Write bandwidth from this memory (bytes/s)
system.mem_ctrls.bw_total::.writebacks      475610485                       # Total bandwidth to/from this memory (bytes/s)
system.mem_ctrls.bw_total::.cpu.inst            52849                       # Total bandwidth to/from this memory (bytes/s)
system.mem_ctrls.bw_total::.cpu.data        477118992                       # Total bandwidth to/from this memory (bytes/s)
system.mem_ctrls.bw_total::total            952782326                       # Total bandwidth to/from this memory (bytes/s)
system.mem_ctrls.avgPriority_.writebacks::samples   5246668.00                       # Average QoS priority value for accepted requests
system.mem_ctrls.avgPriority_.cpu.inst::samples       583.00                       # Average QoS priority value for accepted requests
system.mem_ctrls.avgPriority_.cpu.data::samples   5263309.00                       # Average QoS priority value for accepted requests
system.mem_ctrls.priorityMinLatency      0.000000018750                       # per QoS priority minimum request to response latency (s)
system.mem_ctrls.priorityMaxLatency      0.001552834500                       # per QoS priority maximum request to response latency (s)
system.mem_ctrls.numReadWriteTurnArounds       327910                       # Number of turnarounds from READ to WRITE
system.mem_ctrls.numWriteReadTurnArounds       327910                       # Number of turnarounds from WRITE to READ
system.mem_ctrls.numStayReadState            15627606                       # Number of times bus staying in READ state
system.mem_ctrls.numStayWriteState            4918756                       # Number of times bus staying in WRITE state
system.mem_ctrls.readReqs                     5263892                       # Number of read requests accepted
system.mem_ctrls.writeReqs                    5246668                       # Number of write requests accepted
system.mem_ctrls.readBursts                   5263892                       # Number of DRAM read bursts, including those serviced by the write queue
system.mem_ctrls.writeBursts                  5246668                       # Number of DRAM write bursts, including those merged in the write queue
system.mem_ctrls.servicedByWrQ                      0                       # Number of DRAM read bursts serviced by the write queue
system.mem_ctrls.mergedWrBursts                     0                       # Number of DRAM write bursts merged with an existing one
system.mem_ctrls.neitherReadNorWriteReqs            0                       # Number of requests that are neither read nor write
system.mem_ctrls.perBankRdBursts::0            329032                       # Per bank write bursts
system.mem_ctrls.perBankRdBursts::1            329053                       # Per bank write bursts
system.mem_ctrls.perBankRdBursts::2            329094                       # Per bank write bursts
system.mem_ctrls.perBankRdBursts::3            329070                       # Per bank write bursts
system.mem_ctrls.perBankRdBursts::4            329023                       # Per bank write bursts
system.mem_ctrls.perBankRdBursts::5            329065                       # Per bank write bursts
system.mem_ctrls.perBankRdBursts::6            329081                       # Per bank write bursts
system.mem_ctrls.perBankRdBursts::7            328937                       # Per bank write bursts
system.mem_ctrls.perBankRdBursts::8            328898                       # Per bank write bursts
system.mem_ctrls.perBankRdBursts::9            328866                       # Per bank write bursts
system.mem_ctrls.perBankRdBursts::10           328834                       # Per bank write bursts
system.mem_ctrls.perBankRdBursts::11           329026                       # Per bank write bursts
system.mem_ctrls.perBankRdBursts::12           329023                       # Per bank write bursts
system.mem_ctrls.perBankRdBursts::13           329024                       # Per bank write bursts
system.mem_ctrls.perBankRdBursts::14           328988                       # Per bank write bursts
system.mem_ctrls.perBankRdBursts::15           328878                       # Per bank write bursts
system.mem_ctrls.perBankWrBursts::0            327881                       # Per bank write bursts
system.mem_ctrls.perBankWrBursts::1            327926                       # Per bank write bursts
system.mem_ctrls.perBankWrBursts::2            328028                       # Per bank write bursts
system.mem_ctrls.perBankWrBursts::3            328016                       # Per bank write bursts
system.mem_ctrls.perBankWrBursts::4            327993                       # Per bank write bursts
system.mem_ctrls.perBankWrBursts::5            327997                       # Per bank write bursts
system.mem_ctrls.perBankWrBursts::6            328010                       # Per bank write bursts
system.mem_ctrls.perBankWrBursts::7            327895                       # Per bank write bursts
system.mem_ctrls.perBankWrBursts::8            327808                       # Per bank write bursts
system.mem_ctrls.perBankWrBursts::9            327808                       # Per bank write bursts
system.mem_ctrls.perBankWrBursts::10           327738                       # Per bank write bursts
system.mem_ctrls.perBankWrBursts::11           327953                       # Per bank write bursts
system.mem_ctrls.perBankWrBursts::12           327954                       # Per bank write bursts
system.mem_ctrls.perBankWrBursts::13           327936                       # Per bank write bursts
system.mem_ctrls.perBankWrBursts::14           327873                       # Per bank write bursts
system.mem_ctrls.perBankWrBursts::15           327823                       # Per bank write bursts
system.mem_ctrls.avgRdQLen                       1.00                       # Average read queue length when enqueuing
system.mem_ctrls.avgWrQLen                      25.48                       # Average write queue length when enqueuing
system.mem_ctrls.totQLat                  51078616250                       # Total ticks spent queuing
system.mem_ctrls.totBusLat                26319460000                       # Total ticks spent in databus transfers
system.mem_ctrls.totMemAccLat            149776591250                       # Total ticks spent from burst creation until serviced by the DRAM
system.mem_ctrls.avgQLat                      9703.58                       # Average queueing delay per DRAM burst
system.mem_ctrls.avgBusLat                    5000.00                       # Average bus latency per DRAM burst
system.mem_ctrls.avgMemAccLat                28453.58                       # Average memory access latency per DRAM burst
system.mem_ctrls.numRdRetry                         0                       # Number of times read queue was full causing retry
system.mem_ctrls.numWrRetry                         0                       # Number of times write queue was full causing retry
system.mem_ctrls.readRowHits                  4810286                       # Number of row buffer hits during reads
system.mem_ctrls.writeRowHits                 4877543                       # Number of row buffer hits during writes
system.mem_ctrls.readRowHitRate                 91.38                       # Row buffer hit rate for reads
system.mem_ctrls.writeRowHitRate                92.96                       # Row buffer hit rate for writes
system.mem_ctrls.readPktSize::0                     0                       # Read request sizes (log2)
system.mem_ctrls.readPktSize::1                     0                       # Read request sizes (log2)
system.mem_ctrls.readPktSize::2                     0                       # Read request sizes (log2)
system.mem_ctrls.readPktSize::3                     0                       # Read request sizes (log2)
system.mem_ctrls.readPktSize::4                     0                       # Read request sizes (log2)
system.mem_ctrls.readPktSize::5                     0                       # Read request sizes (log2)
system.mem_ctrls.readPktSize::6               5263892                       # Read request sizes (log2)
system.mem_ctrls.writePktSize::0                    0                       # Write request sizes (log2)
system.mem_ctrls.writePktSize::1                    0                       # Write request sizes (log2)
system.mem_ctrls.writePktSize::2                    0                       # Write request sizes (log2)
system.mem_ctrls.writePktSize::3                    0                       # Write request sizes (log2)
system.mem_ctrls.writePktSize::4                    0                       # Write request sizes (log2)
system.mem_ctrls.writePktSize::5                    0                       # Write request sizes (log2)
system.mem_ctrls.writePktSize::6              5246668                       # Write request sizes (log2)
system.mem_ctrls.rdQLenPdf::0                 5263640                       # What read queue length does an incoming req see
system.mem_ctrls.rdQLenPdf::1                     231                       # What read queue length does an incoming req see
system.mem_ctrls.rdQLenPdf::2                      21                       # What read queue length does an incoming req see
system.mem_ctrls.rdQLenPdf::3                       0                       # What read queue length does an incoming req see
system.mem_ctrls.rdQLenPdf::4                       0                       # What read queue length does an incoming req see
system.mem_ctrls.rdQLenPdf::5                       0                       # What read queue length does an incoming req see
system.mem_ctrls.rdQLenPdf::6                       0                       # What read queue length does an incoming req see
system.mem_ctrls.rdQLenPdf::7                       0                       # What read queue length does an incoming req see
system.mem_ctrls.rdQLenPdf::8                       0                       # What read queue length does an incoming req see
system.mem_ctrls.rdQLenPdf::9                       0                       # What read queue length does an incoming req see
system.mem_ctrls.rdQLenPdf::10                      0                       # What read queue length does an incoming req see
system.mem_ctrls.rdQLenPdf::11                      0                       # What read queue length does an incoming req see
system.mem_ctrls.rdQLenPdf::12                      0                       # What read queue length does an incoming req see
system.mem_ctrls.rdQLenPdf::13                      0                       # What read queue length does an incoming req see
system.mem_ctrls.rdQLenPdf::14                      0                       # What read queue length does an incoming req see
system.mem_ctrls.rdQLenPdf::15                      0                       # What read queue length does an incoming req see
system.mem_ctrls.rdQLenPdf::16                      0                       # What read queue length does an incoming req see
system.mem_ctrls.rdQLenPdf::17                      0                       # What read queue length does an incoming req see
system.mem_ctrls.rdQLenPdf::18                      0                       # What read queue length does an incoming req see
system.mem_ctrls.rdQLenPdf::19                      0                       # What read queue length does an incoming req see
system.mem_ctrls.rdQLenPdf::20                      0                       # What read queue length does an incoming req see
system.mem_ctrls.rdQLenPdf::21                      0                       # What read queue length does an incoming req see
system.mem_ctrls.rdQLenPdf::22                      0                       # What read queue length does an incoming req see
system.mem_ctrls.rdQLenPdf::23                      0                       # What read queue length does an incoming req see
system.mem_ctrls.rdQLenPdf::24                      0                       # What read queue length does an incoming req see
system.mem_ctrls.rdQLenPdf::25                      0                       # What read queue length does an incoming req see
system.mem_ctrls.rdQLenPdf::26                      0                       # What read queue length does an incoming req see
system.mem_ctrls.rdQLenPdf::27                      0                       # What read queue length does an incoming req see
system.mem_ctrls.rdQLenPdf::28                      0                       # What read queue length does an incoming req see
system.mem_ctrls.rdQLenPdf::29                      0                       # What read queue length does an incoming req see
system.mem_ctrls.rdQLenPdf::30                      0                       # What read queue length does an incoming req see
system.mem_ctrls.rdQLenPdf::31                      0                       # What read queue length does an incoming req see
system.mem_ctrls.wrQLenPdf::0                       1                       # What write queue length does an incoming req see
system.mem_ctrls.wrQLenPdf::1                       1                       # What write queue length does an incoming req see
system.mem_ctrls.wrQLenPdf::2                       1                       # What write queue length does an incoming req see
system.mem_ctrls.wrQLenPdf::3                       1                       # What write queue length does an incoming req see
system.mem_ctrls.wrQLenPdf::4                       1                       # What write queue length does an incoming req see
system.mem_ctrls.wrQLenPdf::5                       1                       # What write queue length does an incoming req see
system.mem_ctrls.wrQLenPdf::6                       1                       # What write queue length does an incoming req see
system.mem_ctrls.wrQLenPdf::7                       1                       # What write queue length does an incoming req see
system.mem_ctrls.wrQLenPdf::8                       1                       # What write queue length does an incoming req see
system.mem_ctrls.wrQLenPdf::9                       1                       # What write queue length does an incoming req see
system.mem_ctrls.wrQLenPdf::10                      1                       # What write queue length does an incoming req see
system.mem_ctrls.wrQLenPdf::11                      1                       # What write queue length does an incoming req see
system.mem_ctrls.wrQLenPdf::12                      1                       # What write queue length does an incoming req see
system.mem_ctrls.wrQLenPdf::13                      1                       # What write queue length does an incoming req see
system.mem_ctrls.wrQLenPdf::14                      1                       # What write queue length does an incoming req see
system.mem_ctrls.wrQLenPdf::15                     19                       # What write queue length does an incoming req see
system.mem_ctrls.wrQLenPdf::16                     40                       # What write queue length does an incoming req see
system.mem_ctrls.wrQLenPdf::17                 327685                       # What write queue length does an incoming req see
system.mem_ctrls.wrQLenPdf::18                 327912                       # What write queue length does an incoming req see
system.mem_ctrls.wrQLenPdf::19                 327911                       # What write queue length does an incoming req see
system.mem_ctrls.wrQLenPdf::20                 327911                       # What write queue length does an incoming req see
system.mem_ctrls.wrQLenPdf::21                 327932                       # What write queue length does an incoming req see
system.mem_ctrls.wrQLenPdf::22                 327917                       # What write queue length does an incoming req see
system.mem_ctrls.wrQLenPdf::23                 327930                       # What write queue length does an incoming req see
system.mem_ctrls.wrQLenPdf::24                 328108                       # What write queue length does an incoming req see
system.mem_ctrls.wrQLenPdf::25                 327911                       # What write queue length does an incoming req see
system.mem_ctrls.wrQLenPdf::26                 327911                       # What write queue length does an incoming req see
system.mem_ctrls.wrQLenPdf::27                 327911                       # What write queue length does an incoming req see
system.mem_ctrls.wrQLenPdf::28                 327912                       # What write queue length does an incoming req see
system.mem_ctrls.wrQLenPdf::29                 327911                       # What write queue length does an incoming req see
system.mem_ctrls.wrQLenPdf::30                 327910                       # What write queue length does an incoming req see
system.mem_ctrls.wrQLenPdf::31                 327912                       # What write queue length does an incoming req see
system.mem_ctrls.wrQLenPdf::32                 327910                       # What write queue length does an incoming req see
system.mem_ctrls.wrQLenPdf::33                      0                       # What write queue length does an incoming req see
system.mem_ctrls.wrQLenPdf::34                      0                       # What write queue length does an incoming req see
system.mem_ctrls.wrQLenPdf::35                      0                       # What write queue length does an incoming req see
system.mem_ctrls.wrQLenPdf::36                      0                       # What write queue length does an incoming req see
system.mem_ctrls.wrQLenPdf::37                      0                       # What write queue length does an incoming req see
system.mem_ctrls.wrQLenPdf::38                      0                       # What write queue length does an incoming req see
system.mem_ctrls.wrQLenPdf::39                      0                       # What write queue length does an incoming req see
system.mem_ctrls.wrQLenPdf::40                      0                       # What write queue length does an incoming req see
system.mem_ctrls.wrQLenPdf::41                      0                       # What write queue length does an incoming req see
system.mem_ctrls.wrQLenPdf::42                      0                       # What write queue length does an incoming req see
system.mem_ctrls.wrQLenPdf::43                      0                       # What write queue length does an incoming req see
system.mem_ctrls.wrQLenPdf::44                      0                       # What write queue length does an incoming req see
system.mem_ctrls.wrQLenPdf::45                      0                       # What write queue length does an incoming req see
system.mem_ctrls.wrQLenPdf::46                      0                       # What write queue length does an incoming req see
system.mem_ctrls.wrQLenPdf::47                      0                       # What write queue length does an incoming req see
system.mem_ctrls.wrQLenPdf::48                      0                       # What write queue length does an incoming req see
system.mem_ctrls.wrQLenPdf::49                      0                       # What write queue length does an incoming req see
system.mem_ctrls.wrQLenPdf::50                      0                       # What write queue length does an incoming req see
system.mem_ctrls.wrQLenPdf::51                      0                       # What write queue length does an incoming req see
system.mem_ctrls.wrQLenPdf::52                      0                       # What write queue length does an incoming req see
system.mem_ctrls.wrQLenPdf::53                      0                       # What write queue length does an incoming req see
system.mem_ctrls.wrQLenPdf::54                      0                       # What write queue length does an incoming req see
system.mem_ctrls.wrQLenPdf::55                      0                       # What write queue length does an incoming req see
system.mem_ctrls.wrQLenPdf::56                      0                       # What write queue length does an incoming req see
system.mem_ctrls.wrQLenPdf::57                      0                       # What write queue length does an incoming req see
system.mem_ctrls.wrQLenPdf::58                      0                       # What write queue length does an incoming req see
system.mem_ctrls.wrQLenPdf::59                      0                       # What write queue length does an incoming req see
system.mem_ctrls.wrQLenPdf::60                      0                       # What write queue length does an incoming req see
system.mem_ctrls.wrQLenPdf::61                      0                       # What write queue length does an incoming req see
system.mem_ctrls.wrQLenPdf::62                      0                       # What write queue length does an incoming req see
system.mem_ctrls.wrQLenPdf::63                      0                       # What write queue length does an incoming req see
system.mem_ctrls.bytesPerActivate::samples       822701                       # Bytes accessed per row activation
system.mem_ctrls.bytesPerActivate::mean    817.640042                       # Bytes accessed per row activation
system.mem_ctrls.bytesPerActivate::gmean   692.219989                       # Bytes accessed per row activation
system.mem_ctrls.bytesPerActivate::stdev   317.243252                       # Bytes accessed per row activation
system.mem_ctrls.bytesPerActivate::0-127        37705      4.58%      4.58% # Bytes accessed per row activation
system.mem_ctrls.bytesPerActivate::128-255        33380      4.06%      8.64% # Bytes accessed per row activation
system.mem_ctrls.bytesPerActivate::256-383        44513      5.41%     14.05% # Bytes accessed per row activation
system.mem_ctrls.bytesPerActivate::384-511        45155      5.49%     19.54% # Bytes accessed per row activation
system.mem_ctrls.bytesPerActivate::512-639        26254      3.19%     22.73% # Bytes accessed per row activation
system.mem_ctrls.bytesPerActivate::640-767        41220      5.01%     27.74% # Bytes accessed per row activation
system.mem_ctrls.bytesPerActivate::768-895        44433      5.40%     33.14% # Bytes accessed per row activation
system.mem_ctrls.bytesPerActivate::896-1023        50719      6.16%     39.31% # Bytes accessed per row activation
system.mem_ctrls.bytesPerActivate::1024-1151       499322     60.69%    100.00% # Bytes accessed per row activation
system.mem_ctrls.bytesPerActivate::total       822701                       # Bytes accessed per row activation
system.mem_ctrls.rdPerTurnAround::samples       327910                       # Reads before turning the bus around for writes
system.mem_ctrls.rdPerTurnAround::mean      16.052819                       # Reads before turning the bus around for writes
system.mem_ctrls.rdPerTurnAround::gmean     15.993135                       # Reads before turning the bus around for writes
system.mem_ctrls.rdPerTurnAround::stdev     15.553942                       # Reads before turning the bus around for writes
system.mem_ctrls.rdPerTurnAround::0-255        327901    100.00%    100.00% # Reads before turning the bus around for writes
system.mem_ctrls.rdPerTurnAround::256-511            2      0.00%    100.00% # Reads before turning the bus around for writes
[...]
system.cpu.icache.ReadReq_miss_rate::total     0.000019                       # miss rate for ReadReq accesses
system.cpu.icache.ReadReq_avg_miss_latency::.cpu.inst 101600.985222                       # average ReadReq miss latency
system.cpu.icache.ReadReq_avg_miss_latency::total 101600.985222                       # average ReadReq miss latency
system.cpu.icache.ReadReq_mshr_misses::.cpu.inst          609                       # number of ReadReq MSHR misses
system.cpu.icache.ReadReq_mshr_misses::total          609                       # number of ReadReq MSHR misses
system.cpu.icache.ReadReq_mshr_miss_latency::.cpu.inst     60657000                       # number of ReadReq MSHR miss cycles
system.cpu.icache.ReadReq_mshr_miss_latency::total     60657000                       # number of ReadReq MSHR miss cycles
system.cpu.icache.ReadReq_mshr_miss_rate::.cpu.inst     0.000019                       # mshr miss rate for ReadReq accesses
system.cpu.icache.ReadReq_mshr_miss_rate::total     0.000019                       # mshr miss rate for ReadReq accesses
system.cpu.icache.ReadReq_avg_mshr_miss_latency::.cpu.inst 99600.985222                       # average ReadReq mshr miss latency
system.cpu.icache.ReadReq_avg_mshr_miss_latency::total 99600.985222                       # average ReadReq mshr miss latency
system.cpu.icache.tags.pwrStateResidencyTicks::UNDEFINED 706012089000                       # Cumulative time (in ticks) in various power states
system.cpu.icache.tags.tagsinuse           505.893798                       # Cycle average of tags in use
system.cpu.icache.tags.total_refs            31870388                       # Total number of references to valid blocks.
system.cpu.icache.tags.sampled_refs               609                       # Sample count of references to valid blocks.
system.cpu.icache.tags.avg_refs          52332.328407                       # Average number of references to valid blocks.
system.cpu.icache.tags.warmup_cycle            108000                       # Cycle when the warmup percentage was hit.
system.cpu.icache.tags.occ_blocks::.cpu.inst   505.893798                       # Average occupied blocks per requestor
system.cpu.icache.tags.occ_percent::.cpu.inst     0.123509                       # Average percentage of cache occupancy
system.cpu.icache.tags.occ_percent::total     0.123509                       # Average percentage of cache occupancy
system.cpu.icache.tags.occ_task_id_blocks::1024          607                       # Occupied blocks per task id
system.cpu.icache.tags.age_task_id_blocks_1024::4          607                       # Occupied blocks per task id
system.cpu.icache.tags.occ_task_id_percent::1024     0.148193                       # Percentage of cache occupancy per task id
system.cpu.icache.tags.tag_accesses          31870997                       # Number of tag accesses
system.cpu.icache.tags.data_accesses         31870997                       # Number of data accesses
system.cpu.dtb.walker.pwrStateResidencyTicks::UNDEFINED 706012089000                       # Cumulative time (in ticks) in various power states
system.cpu.dtb.stage2_mmu.stage2_tlb.walker.pwrStateResidencyTicks::UNDEFINED 706012089000                       # Cumulative time (in ticks) in various power states
system.cpu.dcache.pwrStateResidencyTicks::UNDEFINED 706012089000                       # Cumulative time (in ticks) in various power states
system.cpu.dcache.demand_hits::.cpu.data     75810795                       # number of demand (read+write) hits
system.cpu.dcache.demand_hits::total         75810795                       # number of demand (read+write) hits
system.cpu.dcache.overall_hits::.cpu.data     75810829                       # number of overall hits
system.cpu.dcache.overall_hits::total        75810829                       # number of overall hits
system.cpu.dcache.demand_misses::.cpu.data     10569928                       # number of demand (read+write) misses
system.cpu.dcache.demand_misses::total       10569928                       # number of demand (read+write) misses
system.cpu.dcache.overall_misses::.cpu.data     10569965                       # number of overall misses
system.cpu.dcache.overall_misses::total      10569965                       # number of overall misses
system.cpu.dcache.demand_miss_latency::.cpu.data 1109235811999                       # number of demand (read+write) miss cycles
system.cpu.dcache.demand_miss_latency::total 1109235811999                       # number of demand (read+write) miss cycles
system.cpu.dcache.overall_miss_latency::.cpu.data 1109235811999                       # number of overall miss cycles
system.cpu.dcache.overall_miss_latency::total 1109235811999                       # number of overall miss cycles
system.cpu.dcache.demand_accesses::.cpu.data     86380723                       # number of demand (read+write) accesses
system.cpu.dcache.demand_accesses::total     86380723                       # number of demand (read+write) accesses
system.cpu.dcache.overall_accesses::.cpu.data     86380794                       # number of overall (read+write) accesses
system.cpu.dcache.overall_accesses::total     86380794                       # number of overall (read+write) accesses
system.cpu.dcache.demand_miss_rate::.cpu.data     0.122364                       # miss rate for demand accesses
system.cpu.dcache.demand_miss_rate::total     0.122364                       # miss rate for demand accesses
system.cpu.dcache.overall_miss_rate::.cpu.data     0.122365                       # miss rate for overall accesses
system.cpu.dcache.overall_miss_rate::total     0.122365                       # miss rate for overall accesses
system.cpu.dcache.demand_avg_miss_latency::.cpu.data 104942.608124                       # average overall miss latency
system.cpu.dcache.demand_avg_miss_latency::total 104942.608124                       # average overall miss latency
system.cpu.dcache.overall_avg_miss_latency::.cpu.data 104942.240774                       # average overall miss latency
system.cpu.dcache.overall_avg_miss_latency::total 104942.240774                       # average overall miss latency
system.cpu.dcache.blocked_cycles::no_mshrs          180                       # number of cycles access was blocked
system.cpu.dcache.blocked_cycles::no_targets            0                       # number of cycles access was blocked
system.cpu.dcache.blocked::no_mshrs                 5                       # number of cycles access was blocked
system.cpu.dcache.blocked::no_targets               0                       # number of cycles access was blocked
system.cpu.dcache.avg_blocked_cycles::no_mshrs           36                       # average number of cycles each access was blocked
system.cpu.dcache.avg_blocked_cycles::no_targets          nan                       # average number of cycles each access was blocked
system.cpu.dcache.writebacks::.writebacks      5282050                       # number of writebacks
system.cpu.dcache.writebacks::total           5282050                       # number of writebacks
system.cpu.dcache.demand_mshr_hits::.cpu.data      5260457                       # number of demand (read+write) MSHR hits
system.cpu.dcache.demand_mshr_hits::total      5260457                       # number of demand (read+write) MSHR hits
system.cpu.dcache.overall_mshr_hits::.cpu.data      5260457                       # number of overall MSHR hits
system.cpu.dcache.overall_mshr_hits::total      5260457                       # number of overall MSHR hits
system.cpu.dcache.demand_mshr_misses::.cpu.data      5309471                       # number of demand (read+write) MSHR misses
system.cpu.dcache.demand_mshr_misses::total      5309471                       # number of demand (read+write) MSHR misses
system.cpu.dcache.overall_mshr_misses::.cpu.data      5309504                       # number of overall MSHR misses
system.cpu.dcache.overall_mshr_misses::total      5309504                       # number of overall MSHR misses
system.cpu.dcache.demand_mshr_miss_latency::.cpu.data 542532425000                       # number of demand (read+write) MSHR miss cycles
system.cpu.dcache.demand_mshr_miss_latency::total 542532425000                       # number of demand (read+write) MSHR miss cycles
system.cpu.dcache.overall_mshr_miss_latency::.cpu.data 542535937000                       # number of overall MSHR miss cycles
system.cpu.dcache.overall_mshr_miss_latency::total 542535937000                       # number of overall MSHR miss cycles
system.cpu.dcache.demand_mshr_miss_rate::.cpu.data     0.061466                       # mshr miss rate for demand accesses
system.cpu.dcache.demand_mshr_miss_rate::total     0.061466                       # mshr miss rate for demand accesses
system.cpu.dcache.overall_mshr_miss_rate::.cpu.data     0.061466                       # mshr miss rate for overall accesses
system.cpu.dcache.overall_mshr_miss_rate::total     0.061466                       # mshr miss rate for overall accesses
system.cpu.dcache.demand_avg_mshr_miss_latency::.cpu.data 102182.011165                       # average overall mshr miss latency
system.cpu.dcache.demand_avg_mshr_miss_latency::total 102182.011165                       # average overall mshr miss latency
system.cpu.dcache.overall_avg_mshr_miss_latency::.cpu.data 102182.037531                       # average overall mshr miss latency
system.cpu.dcache.overall_avg_mshr_miss_latency::total 102182.037531                       # average overall mshr miss latency
system.cpu.dcache.replacements                5305408                       # number of replacements
system.cpu.dcache.ReadReq_hits::.cpu.data      1997700                       # number of ReadReq hits
system.cpu.dcache.ReadReq_hits::total         1997700                       # number of ReadReq hits
system.cpu.dcache.ReadReq_misses::.cpu.data        46427                       # number of ReadReq misses
system.cpu.dcache.ReadReq_misses::total         46427                       # number of ReadReq misses
system.cpu.dcache.ReadReq_miss_latency::.cpu.data   2037265000                       # number of ReadReq miss cycles
system.cpu.dcache.ReadReq_miss_latency::total   2037265000                       # number of ReadReq miss cycles
system.cpu.dcache.ReadReq_accesses::.cpu.data      2044127                       # number of ReadReq accesses(hits+misses)
system.cpu.dcache.ReadReq_accesses::total      2044127                       # number of ReadReq accesses(hits+misses)
system.cpu.dcache.ReadReq_miss_rate::.cpu.data     0.022712                       # miss rate for ReadReq accesses
system.cpu.dcache.ReadReq_miss_rate::total     0.022712                       # miss rate for ReadReq accesses
system.cpu.dcache.ReadReq_avg_miss_latency::.cpu.data 43881.039051                       # average ReadReq miss latency
system.cpu.dcache.ReadReq_avg_miss_latency::total 43881.039051                       # average ReadReq miss latency
system.cpu.dcache.ReadReq_mshr_hits::.cpu.data           29                       # number of ReadReq MSHR hits
system.cpu.dcache.ReadReq_mshr_hits::total           29                       # number of ReadReq MSHR hits
system.cpu.dcache.ReadReq_mshr_misses::.cpu.data        46398                       # number of ReadReq MSHR misses
system.cpu.dcache.ReadReq_mshr_misses::total        46398                       # number of ReadReq MSHR misses
system.cpu.dcache.ReadReq_mshr_miss_latency::.cpu.data   1941744000                       # number of ReadReq MSHR miss cycles
system.cpu.dcache.ReadReq_mshr_miss_latency::total   1941744000                       # number of ReadReq MSHR miss cycles
system.cpu.dcache.ReadReq_mshr_miss_rate::.cpu.data     0.022698                       # mshr miss rate for ReadReq accesses
system.cpu.dcache.ReadReq_mshr_miss_rate::total     0.022698                       # mshr miss rate for ReadReq accesses
system.cpu.dcache.ReadReq_avg_mshr_miss_latency::.cpu.data 41849.734902                       # average ReadReq mshr miss latency
system.cpu.dcache.ReadReq_avg_mshr_miss_latency::total 41849.734902                       # average ReadReq mshr miss latency
system.cpu.dcache.WriteReq_hits::.cpu.data     73813095                       # number of WriteReq hits
system.cpu.dcache.WriteReq_hits::total       73813095                       # number of WriteReq hits
system.cpu.dcache.WriteReq_misses::.cpu.data     10523501                       # number of WriteReq misses
system.cpu.dcache.WriteReq_misses::total     10523501                       # number of WriteReq misses
system.cpu.dcache.WriteReq_miss_latency::.cpu.data 1107198546999                       # number of WriteReq miss cycles
system.cpu.dcache.WriteReq_miss_latency::total 1107198546999                       # number of WriteReq miss cycles
system.cpu.dcache.WriteReq_accesses::.cpu.data     84336596                       # number of WriteReq accesses(hits+misses)
system.cpu.dcache.WriteReq_accesses::total     84336596                       # number of WriteReq accesses(hits+misses)
system.cpu.dcache.WriteReq_miss_rate::.cpu.data     0.124780                       # miss rate for WriteReq accesses
system.cpu.dcache.WriteReq_miss_rate::total     0.124780                       # miss rate for WriteReq accesses
system.cpu.dcache.WriteReq_avg_miss_latency::.cpu.data 105211.996179                       # average WriteReq miss latency
system.cpu.dcache.WriteReq_avg_miss_latency::total 105211.996179                       # average WriteReq miss latency
system.cpu.dcache.WriteReq_mshr_hits::.cpu.data      5260428                       # number of WriteReq MSHR hits
system.cpu.dcache.WriteReq_mshr_hits::total      5260428                       # number of WriteReq MSHR hits
system.cpu.dcache.WriteReq_mshr_misses::.cpu.data      5263073                       # number of WriteReq MSHR misses
system.cpu.dcache.WriteReq_mshr_misses::total      5263073                       # number of WriteReq MSHR misses
system.cpu.dcache.WriteReq_mshr_miss_latency::.cpu.data 540590681000                       # number of WriteReq MSHR miss cycles
system.cpu.dcache.WriteReq_mshr_miss_latency::total 540590681000                       # number of WriteReq MSHR miss cycles
system.cpu.dcache.WriteReq_mshr_miss_rate::.cpu.data     0.062406                       # mshr miss rate for WriteReq accesses
system.cpu.dcache.WriteReq_mshr_miss_rate::total     0.062406                       # mshr miss rate for WriteReq accesses
system.cpu.dcache.WriteReq_avg_mshr_miss_latency::.cpu.data 102713.886165                       # average WriteReq mshr miss latency
system.cpu.dcache.WriteReq_avg_mshr_miss_latency::total 102713.886165                       # average WriteReq mshr miss latency
system.cpu.dcache.SoftPFReq_hits::.cpu.data           34                       # number of SoftPFReq hits
system.cpu.dcache.SoftPFReq_hits::total            34                       # number of SoftPFReq hits
system.cpu.dcache.SoftPFReq_misses::.cpu.data           37                       # number of SoftPFReq misses
system.cpu.dcache.SoftPFReq_misses::total           37                       # number of SoftPFReq misses
system.cpu.dcache.SoftPFReq_accesses::.cpu.data           71                       # number of SoftPFReq accesses(hits+misses)
system.cpu.dcache.SoftPFReq_accesses::total           71                       # number of SoftPFReq accesses(hits+misses)
system.cpu.dcache.SoftPFReq_miss_rate::.cpu.data     0.521127                       # miss rate for SoftPFReq accesses
system.cpu.dcache.SoftPFReq_miss_rate::total     0.521127                       # miss rate for SoftPFReq accesses
system.cpu.dcache.SoftPFReq_mshr_misses::.cpu.data           33                       # number of SoftPFReq MSHR misses
system.cpu.dcache.SoftPFReq_mshr_misses::total           33                       # number of SoftPFReq MSHR misses
system.cpu.dcache.SoftPFReq_mshr_miss_latency::.cpu.data      3512000                       # number of SoftPFReq MSHR miss cycles
system.cpu.dcache.SoftPFReq_mshr_miss_latency::total      3512000                       # number of SoftPFReq MSHR miss cycles
system.cpu.dcache.SoftPFReq_mshr_miss_rate::.cpu.data     0.464789                       # mshr miss rate for SoftPFReq accesses
system.cpu.dcache.SoftPFReq_mshr_miss_rate::total     0.464789                       # mshr miss rate for SoftPFReq accesses
system.cpu.dcache.SoftPFReq_avg_mshr_miss_latency::.cpu.data 106424.242424                       # average SoftPFReq mshr miss latency
system.cpu.dcache.SoftPFReq_avg_mshr_miss_latency::total 106424.242424                       # average SoftPFReq mshr miss latency
system.cpu.dcache.LoadLockedReq_hits::.cpu.data           34                       # number of LoadLockedReq hits
system.cpu.dcache.LoadLockedReq_hits::total           34                       # number of LoadLockedReq hits
system.cpu.dcache.LoadLockedReq_accesses::.cpu.data           34                       # number of LoadLockedReq accesses(hits+misses)
system.cpu.dcache.LoadLockedReq_accesses::total           34                       # number of LoadLockedReq accesses(hits+misses)
system.cpu.dcache.StoreCondReq_hits::.cpu.data           34                       # number of StoreCondReq hits
system.cpu.dcache.StoreCondReq_hits::total           34                       # number of StoreCondReq hits
system.cpu.dcache.StoreCondReq_accesses::.cpu.data           34                       # number of StoreCondReq accesses(hits+misses)
system.cpu.dcache.StoreCondReq_accesses::total           34                       # number of StoreCondReq accesses(hits+misses)
system.cpu.dcache.tags.pwrStateResidencyTicks::UNDEFINED 706012089000                       # Cumulative time (in ticks) in various power states
system.cpu.dcache.tags.tagsinuse          4070.711834                       # Cycle average of tags in use
system.cpu.dcache.tags.total_refs            81120401                       # Total number of references to valid blocks.
system.cpu.dcache.tags.sampled_refs           5309504                       # Sample count of references to valid blocks.
system.cpu.dcache.tags.avg_refs             15.278339                       # Average number of references to valid blocks.
system.cpu.dcache.tags.warmup_cycle            223000                       # Cycle when the warmup percentage was hit.
system.cpu.dcache.tags.occ_blocks::.cpu.data  4070.711834                       # Average occupied blocks per requestor
system.cpu.dcache.tags.occ_percent::.cpu.data     0.993826                       # Average percentage of cache occupancy
system.cpu.dcache.tags.occ_percent::total     0.993826                       # Average percentage of cache occupancy
system.cpu.dcache.tags.occ_task_id_blocks::1024         4096                       # Occupied blocks per task id
system.cpu.dcache.tags.age_task_id_blocks_1024::0           75                       # Occupied blocks per task id
system.cpu.dcache.tags.age_task_id_blocks_1024::1          679                       # Occupied blocks per task id
system.cpu.dcache.tags.age_task_id_blocks_1024::2         3342                       # Occupied blocks per task id
system.cpu.dcache.tags.occ_task_id_percent::1024            1                       # Percentage of cache occupancy per task id
system.cpu.dcache.tags.tag_accesses          91690366                       # Number of tag accesses
system.cpu.dcache.tags.data_accesses         91690366                       # Number of data accesses
system.cpu.itb.walker.pwrStateResidencyTicks::UNDEFINED 706012089000                       # Cumulative time (in ticks) in various power states
system.cpu.itb.stage2_mmu.stage2_tlb.walker.pwrStateResidencyTicks::UNDEFINED 706012089000                       # Cumulative time (in ticks) in various power states

---------- End Simulation Statistics   ----------
